@<TRIPOS>MOLECULE
S_SiF2_8_cyclic
 25 25 0 0 0
SMALL
GASTEIGER
****
Schrodinger Suite 2023-1.
@<TRIPOS>ATOM
      1 S           0.4316   -1.6079    2.0831 S.3     1  UNL1        0.0000
      2 SI          2.5216   -1.2688    1.7549 Si      1  UNL1        0.0000
      3 SI          0.2373   -0.2686    3.7413 Si      1  UNL1        0.0000
      4 SI         -2.0682    0.4274    4.0227 Si      1  UNL1        0.0000
      5 SI         -3.0391    0.1012    1.8623 Si      1  UNL1        0.0000
      6 SI          1.5831   -0.4096   -1.8896 Si      1  UNL1        0.0000
      7 SI          2.9333    0.3042   -0.0413 Si      1  UNL1        0.0000
      8 SI         -1.4823    0.8855    0.2192 Si      1  UNL1        0.0000
      9 SI         -0.7449   -0.7574   -1.3557 Si      1  UNL1        0.0000
     10 F           1.1799    1.0038    3.4199 F       1  UNL1        0.0000
     11 F           0.8247   -0.9990    5.0566 F       1  UNL1        0.0000
     12 F          -2.1691    1.9831    4.4718 F       1  UNL1        0.0000
     13 F          -2.8393   -0.4405    5.1560 F       1  UNL1        0.0000
     14 F          -3.3981   -1.4586    1.6147 F       1  UNL1        0.0000
     15 F          -4.4414    0.9058    1.7419 F       1  UNL1        0.0000
     16 F          -0.1779    1.4411    1.0002 F       1  UNL1        0.0000
     17 F          -2.0724    2.1801   -0.5549 F       1  UNL1        0.0000
     18 F          -0.9887   -2.2567   -0.7964 F       1  UNL1        0.0000
     19 F          -1.6444   -0.6581   -2.7004 F       1  UNL1        0.0000
     20 F           1.6943    0.6871   -3.0780 F       1  UNL1        0.0000
     21 F           2.2101   -1.7696   -2.5090 F       1  UNL1        0.0000
     22 F           4.5027    0.3404   -0.4508 F       1  UNL1        0.0000
     23 F           2.5489    1.8201    0.3872 F       1  UNL1        0.0000
     24 F           3.2314   -0.8335    3.1396 F       1  UNL1        0.0000
     25 F           3.1441   -2.7072    1.3642 F       1  UNL1        0.0000
@<TRIPOS>BOND
     1     1     3    1
     2     1     2    1
     3     2    24    1
     4     2     7    1
     5     2    25    1
     6     3    10    1
     7     3    11    1
     8     3     4    1
     9     4    12    1
    10     4     5    1
    11     4    13    1
    12     5    15    1
    13     5    14    1
    14     5     8    1
    15     6    20    1
    16     6     7    1
    17     6     9    1
    18     6    21    1
    19     7    22    1
    20     7    23    1
    21     8     9    1
    22     8    16    1
    23     8    17    1
    24     9    19    1
    25     9    18    1
@<TRIPOS>MOLECULE
S_SiF2_8_cyclic
 25 25 0 0 0
SMALL
GASTEIGER
****
Schrodinger Suite 2023-1.
@<TRIPOS>ATOM
      1 S           0.4316   -1.6080    2.0834 S.3     1  UNL1        0.0000
      2 SI          1.9114   -1.9595    3.5892 Si      1  UNL1        0.0000
      3 SI          0.2098   -3.6561    1.4940 Si      1  UNL1        0.0000
      4 SI         -1.7200   -4.7081    2.5133 Si      1  UNL1        0.0000
      5 SI         -3.5631   -3.2119    2.1767 Si      1  UNL1        0.0000
      6 SI         -0.2141    0.8431    5.0132 Si      1  UNL1        0.0000
      7 SI          1.9558   -0.1440    5.1958 Si      1  UNL1        0.0000
      8 SI         -3.1529   -0.9402    2.8816 Si      1  UNL1        0.0000
      9 SI         -1.8267   -0.9230    4.8726 Si      1  UNL1        0.0000
     10 F           1.5815   -4.4612    1.7785 F       1  UNL1        0.0000
     11 F           0.0267   -3.6343   -0.1107 F       1  UNL1        0.0000
     12 F          -1.4922   -4.9773    4.0960 F       1  UNL1        0.0000
     13 F          -2.0237   -6.1585    1.8529 F       1  UNL1        0.0000
     14 F          -3.9808   -3.2304    0.6110 F       1  UNL1        0.0000
     15 F          -4.8577   -3.7843    2.9666 F       1  UNL1        0.0000
     16 F          -4.5582   -0.1830    3.1626 F       1  UNL1        0.0000
     17 F          -2.4463   -0.0899    1.6992 F       1  UNL1        0.0000
     18 F          -2.7799   -0.9316    6.1821 F       1  UNL1        0.0000
     19 F          -1.0272   -2.3286    4.9453 F       1  UNL1        0.0000
     20 F          -0.5192    1.7865    6.2958 F       1  UNL1        0.0000
     21 F          -0.3067    1.8100    3.7171 F       1  UNL1        0.0000
     22 F           3.1259    0.9332    4.8753 F       1  UNL1        0.0000
     23 F           2.2171   -0.6887    6.7015 F       1  UNL1        0.0000
     24 F           1.5134   -3.3486    4.3123 F       1  UNL1        0.0000
     25 F           3.3374   -2.1721    2.8613 F       1  UNL1        0.0000
@<TRIPOS>BOND
     1     1     3    1
     2     1     2    1
     3     2    24    1
     4     2     7    1
     5     2    25    1
     6     3    10    1
     7     3    11    1
     8     3     4    1
     9     4    12    1
    10     4     5    1
    11     4    13    1
    12     5    15    1
    13     5    14    1
    14     5     8    1
    15     6    20    1
    16     6     7    1
    17     6     9    1
    18     6    21    1
    19     7    22    1
    20     7    23    1
    21     8     9    1
    22     8    16    1
    23     8    17    1
    24     9    19    1
    25     9    18    1
@<TRIPOS>MOLECULE
S_SiF2_8_cyclic
 25 25 0 0 0
SMALL
GASTEIGER
****
Schrodinger Suite 2023-1.
@<TRIPOS>ATOM
      1 S           0.4315   -1.6081    2.0832 S.3     1  UNL1        0.0000
      2 SI          2.1756   -0.6621    2.8922 Si      1  UNL1        0.0000
      3 SI         -0.7630    0.1645    1.9729 Si      1  UNL1        0.0000
      4 SI         -3.1236   -0.3875    1.9279 Si      1  UNL1        0.0000
      5 SI         -3.2293   -2.5588    2.9230 Si      1  UNL1        0.0000
      6 SI          1.9948   -3.2651    5.7364 Si      1  UNL1        0.0000
      7 SI          2.3458   -0.9350    5.2935 Si      1  UNL1        0.0000
      8 SI         -1.7769   -2.5767    4.8281 Si      1  UNL1        0.0000
      9 SI         -0.0066   -4.1839    4.7484 Si      1  UNL1        0.0000
     10 F          -0.3033    1.0079    0.6744 F       1  UNL1        0.0000
     11 F          -0.4093    1.0418    3.2829 F       1  UNL1        0.0000
     12 F          -3.7251   -0.3963    0.4210 F       1  UNL1        0.0000
     13 F          -4.0003    0.6803    2.7783 F       1  UNL1        0.0000
     14 F          -4.7490   -2.9071    3.3675 F       1  UNL1        0.0000
     15 F          -2.8013   -3.7066    1.8635 F       1  UNL1        0.0000
     16 F          -2.6293   -2.7478    6.1947 F       1  UNL1        0.0000
     17 F          -1.1060   -1.1087    4.9513 F       1  UNL1        0.0000
     18 F          -0.4560   -5.5218    5.5455 F       1  UNL1        0.0000
     19 F           0.2735   -4.6727    3.2309 F       1  UNL1        0.0000
     20 F           3.2872   -4.1008    5.2288 F       1  UNL1        0.0000
     21 F           1.9456   -3.4952    7.3402 F       1  UNL1        0.0000
     22 F           1.2472   -0.0385    6.0799 F       1  UNL1        0.0000
     23 F           3.7933   -0.4526    5.8449 F       1  UNL1        0.0000
     24 F           3.4351   -1.3782    2.1781 F       1  UNL1        0.0000
     25 F           2.2217    0.8872    2.4360 F       1  UNL1        0.0000
@<TRIPOS>BOND
     1     1     3    1
     2     1     2    1
     3     2    24    1
     4     2     7    1
     5     2    25    1
     6     3    10    1
     7     3    11    1
     8     3     4    1
     9     4    12    1
    10     4     5    1
    11     4    13    1
    12     5    15    1
    13     5    14    1
    14     5     8    1
    15     6    20    1
    16     6     7    1
    17     6     9    1
    18     6    21    1
    19     7    22    1
    20     7    23    1
    21     8     9    1
    22     8    16    1
    23     8    17    1
    24     9    19    1
    25     9    18    1
@<TRIPOS>MOLECULE
S_SiF2_8_cyclic
 25 25 0 0 0
SMALL
GASTEIGER
****
Schrodinger Suite 2023-1.
@<TRIPOS>ATOM
      1 S           0.4315   -1.6081    2.0829 S.3     1  UNL1        0.0000
      2 SI          2.3107   -2.6324    2.0659 Si      1  UNL1        0.0000
      3 SI          1.1489    0.1769    3.0264 Si      1  UNL1        0.0000
      4 SI          1.5948    1.9495    1.4360 Si      1  UNL1        0.0000
      5 SI         -0.3384    2.0961    0.0254 Si      1  UNL1        0.0000
      6 SI          0.6589   -3.6689   -1.1896 Si      1  UNL1        0.0000
      7 SI          2.3338   -4.3639    0.3687 Si      1  UNL1        0.0000
      8 SI         -1.0273   -0.0001   -0.9530 Si      1  UNL1        0.0000
      9 SI          0.8905   -1.3088   -1.5294 Si      1  UNL1        0.0000
     10 F           2.4283   -0.1670    3.9513 F       1  UNL1        0.0000
     11 F          -0.0232    0.6416    4.0360 F       1  UNL1        0.0000
     12 F           2.9185    1.6440    0.5506 F       1  UNL1        0.0000
     13 F           1.8741    3.3618    2.1839 F       1  UNL1        0.0000
     14 F          -1.5649    2.7320    0.8727 F       1  UNL1        0.0000
     15 F          -0.0462    3.1618   -1.1605 F       1  UNL1        0.0000
     16 F          -1.9145    0.2717   -2.2820 F       1  UNL1        0.0000
     17 F          -2.0085   -0.8077    0.0496 F       1  UNL1        0.0000
     18 F           1.3491   -0.9929   -3.0504 F       1  UNL1        0.0000
     19 F           2.1282   -0.7980   -0.6196 F       1  UNL1        0.0000
     20 F           0.8253   -4.4613   -2.5941 F       1  UNL1        0.0000
     21 F          -0.8247   -4.0284   -0.6486 F       1  UNL1        0.0000
     22 F           2.0026   -5.8298    0.9802 F       1  UNL1        0.0000
     23 F           3.7834   -4.4710   -0.3517 F       1  UNL1        0.0000
     24 F           3.4404   -1.5191    1.7576 F       1  UNL1        0.0000
     25 F           2.5846   -3.2178    3.5461 F       1  UNL1        0.0000
@<TRIPOS>BOND
     1     1     3    1
     2     1     2    1
     3     2    24    1
     4     2     7    1
     5     2    25    1
     6     3    10    1
     7     3    11    1
     8     3     4    1
     9     4    12    1
    10     4     5    1
    11     4    13    1
    12     5    15    1
    13     5    14    1
    14     5     8    1
    15     6    20    1
    16     6     7    1
    17     6     9    1
    18     6    21    1
    19     7    22    1
    20     7    23    1
    21     8     9    1
    22     8    16    1
    23     8    17    1
    24     9    19    1
    25     9    18    1
@<TRIPOS>MOLECULE
S_SiF2_8_cyclic
 25 25 0 0 0
SMALL
GASTEIGER
****
Schrodinger Suite 2023-1.
@<TRIPOS>ATOM
      1 S           0.4316   -1.6080    2.0832 S.3     1  UNL1        0.0000
      2 SI         -1.0157   -2.3445    3.4776 Si      1  UNL1        0.0000
      3 SI          1.0217    0.0962    3.2403 Si      1  UNL1        0.0000
      4 SI         -0.0645    2.1338    2.5068 Si      1  UNL1        0.0000
      5 SI          0.1943    2.2199    0.1246 Si      1  UNL1        0.0000
      6 SI         -2.5304   -3.0980    0.0811 Si      1  UNL1        0.0000
      7 SI         -2.6271   -3.7788    2.3709 Si      1  UNL1        0.0000
      8 SI         -0.5037    0.2203   -1.0331 Si      1  UNL1        0.0000
      9 SI         -2.4433   -0.7047    0.0183 Si      1  UNL1        0.0000
     10 F           2.6183    0.2338    3.0371 F       1  UNL1        0.0000
     11 F           0.7929   -0.2011    4.8119 F       1  UNL1        0.0000
     12 F           0.5912    3.4417    3.2079 F       1  UNL1        0.0000
     13 F          -1.6360    2.1544    2.9055 F       1  UNL1        0.0000
     14 F          -0.6427    3.4830   -0.4512 F       1  UNL1        0.0000
     15 F           1.7428    2.5424   -0.2283 F       1  UNL1        0.0000
     16 F           0.7012   -0.8590   -1.0940 F       1  UNL1        0.0000
     17 F          -0.8405    0.5631   -2.5811 F       1  UNL1        0.0000
     18 F          -2.4798   -0.1689    1.5453 F       1  UNL1        0.0000
     19 F          -3.7877   -0.1017   -0.6543 F       1  UNL1        0.0000
     20 F          -1.2429   -3.7394   -0.6632 F       1  UNL1        0.0000
     21 F          -3.8276   -3.6378   -0.7278 F       1  UNL1        0.0000
     22 F          -4.1196   -3.5711    2.9721 F       1  UNL1        0.0000
     23 F          -2.2673   -5.3521    2.5372 F       1  UNL1        0.0000
     24 F          -0.2335   -3.1028    4.6700 F       1  UNL1        0.0000
     25 F          -1.7471   -1.0502    4.1106 F       1  UNL1        0.0000
@<TRIPOS>BOND
     1     1     3    1
     2     1     2    1
     3     2    24    1
     4     2     7    1
     5     2    25    1
     6     3    10    1
     7     3    11    1
     8     3     4    1
     9     4    12    1
    10     4     5    1
    11     4    13    1
    12     5    15    1
    13     5    14    1
    14     5     8    1
    15     6    20    1
    16     6     7    1
    17     6     9    1
    18     6    21    1
    19     7    22    1
    20     7    23    1
    21     8     9    1
    22     8    16    1
    23     8    17    1
    24     9    19    1
    25     9    18    1
@<TRIPOS>MOLECULE
S_SiF2_8_cyclic
 25 25 0 0 0
SMALL
GASTEIGER
****
Schrodinger Suite 2023-1.
@<TRIPOS>ATOM
      1 S           0.4318   -1.6080    2.0832 S.3     1  UNL1        0.0000
      2 SI          0.1582   -3.4751    1.0682 Si      1  UNL1        0.0000
      3 SI         -0.9974   -0.5070    0.9316 Si      1  UNL1        0.0000
      4 SI         -0.5429    1.8723    1.0383 Si      1  UNL1        0.0000
      5 SI          1.7773    1.9933    1.6025 Si      1  UNL1        0.0000
      6 SI          3.9692   -3.4461    0.4550 Si      1  UNL1        0.0000
      7 SI          1.8627   -3.8761   -0.6064 Si      1  UNL1        0.0000
      8 SI          2.9463    0.3558    0.3020 Si      1  UNL1        0.0000
      9 SI          4.1157   -1.3071    1.5635 Si      1  UNL1        0.0000
     10 F          -2.4756   -0.8758    1.4678 F       1  UNL1        0.0000
     11 F          -0.8754   -1.0414   -0.5884 F       1  UNL1        0.0000
     12 F          -1.4616    2.6256    2.1432 F       1  UNL1        0.0000
     13 F          -0.8291    2.5969   -0.3848 F       1  UNL1        0.0000
     14 F           2.3594    3.4759    1.3003 F       1  UNL1        0.0000
     15 F           2.0056    1.7394    3.1858 F       1  UNL1        0.0000
     16 F           3.9494    1.0714   -0.7493 F       1  UNL1        0.0000
     17 F           1.8603   -0.4032   -0.6280 F       1  UNL1        0.0000
     18 F           5.6681   -0.8697    1.7245 F       1  UNL1        0.0000
     19 F           3.5469   -1.4032    3.0759 F       1  UNL1        0.0000
     20 F           4.2797   -4.6322    1.5148 F       1  UNL1        0.0000
     21 F           5.1483   -3.5491   -0.6525 F       1  UNL1        0.0000
     22 F           1.6741   -2.9146   -1.8984 F       1  UNL1        0.0000
     23 F           1.7972   -5.3967   -1.1680 F       1  UNL1        0.0000
     24 F           0.2471   -4.6135    2.2107 F       1  UNL1        0.0000
     25 F          -1.3389   -3.5586    0.4663 F       1  UNL1        0.0000
@<TRIPOS>BOND
     1     1     3    1
     2     1     2    1
     3     2    24    1
     4     2     7    1
     5     2    25    1
     6     3    10    1
     7     3    11    1
     8     3     4    1
     9     4    12    1
    10     4     5    1
    11     4    13    1
    12     5    15    1
    13     5    14    1
    14     5     8    1
    15     6    20    1
    16     6     7    1
    17     6     9    1
    18     6    21    1
    19     7    22    1
    20     7    23    1
    21     8     9    1
    22     8    16    1
    23     8    17    1
    24     9    19    1
    25     9    18    1
@<TRIPOS>MOLECULE
S_SiF2_8_cyclic
 25 25 0 0 0
SMALL
GASTEIGER
****
Schrodinger Suite 2023-1.
@<TRIPOS>ATOM
      1 S           0.4317   -1.6079    2.0831 S.3     1  UNL1        0.0000
      2 SI          1.0705   -3.3306    0.9807 Si      1  UNL1        0.0000
      3 SI          1.4393   -2.1110    3.9032 Si      1  UNL1        0.0000
      4 SI          1.7941   -0.1374    5.2663 Si      1  UNL1        0.0000
      5 SI          1.7199    1.6679    3.7006 Si      1  UNL1        0.0000
      6 SI          2.4118   -0.8633   -1.6678 Si      1  UNL1        0.0000
      7 SI          2.9616   -2.8594   -0.4587 Si      1  UNL1        0.0000
      8 SI          2.9525    1.0161    1.7524 Si      1  UNL1        0.0000
      9 SI          1.7001    0.9830   -0.2857 Si      1  UNL1        0.0000
     10 F           2.8521   -2.7720    3.4812 F       1  UNL1        0.0000
     11 F           0.5743   -3.2401    4.6683 F       1  UNL1        0.0000
     12 F           3.2287   -0.1869    6.0225 F       1  UNL1        0.0000
     13 F           0.6615    0.0284    6.4162 F       1  UNL1        0.0000
     14 F           0.1919    2.0417    3.3150 F       1  UNL1        0.0000
     15 F           2.3568    3.0100    4.3497 F       1  UNL1        0.0000
     16 F           3.5229   -0.4775    2.0056 F       1  UNL1        0.0000
     17 F           4.2776    1.9317    1.5821 F       1  UNL1        0.0000
     18 F           0.1096    0.9040    0.0048 F       1  UNL1        0.0000
     19 F           1.9152    2.3828   -1.0740 F       1  UNL1        0.0000
     20 F           3.6985   -0.4045   -2.5405 F       1  UNL1        0.0000
     21 F           1.2616   -1.2043   -2.7574 F       1  UNL1        0.0000
     22 F           3.2552   -4.0894   -1.4749 F       1  UNL1        0.0000
     23 F           4.3260   -2.6475    0.3914 F       1  UNL1        0.0000
     24 F           1.3487   -4.5585    1.9934 F       1  UNL1        0.0000
     25 F          -0.1960   -3.7700    0.0794 F       1  UNL1        0.0000
@<TRIPOS>BOND
     1     1     3    1
     2     1     2    1
     3     2    24    1
     4     2     7    1
     5     2    25    1
     6     3    10    1
     7     3    11    1
     8     3     4    1
     9     4    12    1
    10     4     5    1
    11     4    13    1
    12     5    15    1
    13     5    14    1
    14     5     8    1
    15     6    20    1
    16     6     7    1
    17     6     9    1
    18     6    21    1
    19     7    22    1
    20     7    23    1
    21     8     9    1
    22     8    16    1
    23     8    17    1
    24     9    19    1
    25     9    18    1
@<TRIPOS>MOLECULE
S_SiF2_8_cyclic
 25 25 0 0 0
SMALL
GASTEIGER
****
Schrodinger Suite 2023-1.
@<TRIPOS>ATOM
      1 S           0.4314   -1.6083    2.0829 S.3     1  UNL1        0.0000
      2 SI          0.3871   -0.4850    0.2587 Si      1  UNL1        0.0000
      3 SI         -1.4021   -2.6616    1.7507 Si      1  UNL1        0.0000
      4 SI         -1.4746   -4.7018    3.0589 Si      1  UNL1        0.0000
      5 SI          0.8254   -5.2014    3.4796 Si      1  UNL1        0.0000
      6 SI          3.9037   -1.9127   -0.4463 Si      1  UNL1        0.0000
      7 SI          1.7804   -1.4634   -1.4651 Si      1  UNL1        0.0000
      8 SI          2.0526   -4.8229    1.4573 Si      1  UNL1        0.0000
      9 SI          3.7840   -3.1786    1.6053 Si      1  UNL1        0.0000
     10 F          -1.4623   -2.9968    0.1712 F       1  UNL1        0.0000
     11 F          -2.6288   -1.6678    2.0919 F       1  UNL1        0.0000
     12 F          -2.1868   -5.9080    2.2404 F       1  UNL1        0.0000
     13 F          -2.3035   -4.5175    4.4414 F       1  UNL1        0.0000
     14 F           1.4085   -4.2895    4.6844 F       1  UNL1        0.0000
     15 F           0.9936   -6.7396    3.9633 F       1  UNL1        0.0000
     16 F           1.0027   -4.3338    0.3266 F       1  UNL1        0.0000
     17 F           2.6482   -6.2146    0.8815 F       1  UNL1        0.0000
     18 F           3.5550   -2.1986    2.8731 F       1  UNL1        0.0000
     19 F           5.2014   -3.9113    1.8900 F       1  UNL1        0.0000
     20 F           4.8382   -2.7092   -1.5045 F       1  UNL1        0.0000
     21 F           4.6696   -0.5098   -0.1781 F       1  UNL1        0.0000
     22 F           1.9463   -0.4644   -2.7325 F       1  UNL1        0.0000
     23 F           1.1364   -2.8295   -2.0553 F       1  UNL1        0.0000
     24 F          -1.1417   -0.2753   -0.2201 F       1  UNL1        0.0000
     25 F           0.9456    0.9837    0.6334 F       1  UNL1        0.0000
@<TRIPOS>BOND
     1     1     3    1
     2     1     2    1
     3     2    24    1
     4     2     7    1
     5     2    25    1
     6     3    10    1
     7     3    11    1
     8     3     4    1
     9     4    12    1
    10     4     5    1
    11     4    13    1
    12     5    15    1
    13     5    14    1
    14     5     8    1
    15     6    20    1
    16     6     7    1
    17     6     9    1
    18     6    21    1
    19     7    22    1
    20     7    23    1
    21     8     9    1
    22     8    16    1
    23     8    17    1
    24     9    19    1
    25     9    18    1
@<TRIPOS>MOLECULE
S_SiF2_8_cyclic
 25 25 0 0 0
SMALL
GASTEIGER
****
Schrodinger Suite 2023-1.
@<TRIPOS>ATOM
      1 S           0.4315   -1.6082    2.0834 S.3     1  UNL1        0.0000
      2 SI         -1.5283   -2.3445    2.5291 Si      1  UNL1        0.0000
      3 SI          0.5216   -0.1990    3.6951 Si      1  UNL1        0.0000
      4 SI          1.7605   -1.0464    5.5970 Si      1  UNL1        0.0000
      5 SI          3.8132   -1.9304    4.7291 Si      1  UNL1        0.0000
      6 SI          0.3566   -5.4040    1.3095 Si      1  UNL1        0.0000
      7 SI         -1.8601   -4.5478    1.5730 Si      1  UNL1        0.0000
      8 SI          3.5423   -3.4964    2.9124 Si      1  UNL1        0.0000
      9 SI          1.6071   -4.8548    3.2777 Si      1  UNL1        0.0000
     10 F          -0.9698    0.2830    4.0873 F       1  UNL1        0.0000
     11 F           1.2719    1.1017    3.0998 F       1  UNL1        0.0000
     12 F           0.9371   -2.1996    6.3854 F       1  UNL1        0.0000
     13 F           2.0477    0.1210    6.6863 F       1  UNL1        0.0000
     14 F           4.7596   -0.7032    4.2552 F       1  UNL1        0.0000
     15 F           4.6265   -2.6519    5.9314 F       1  UNL1        0.0000
     16 F           4.8522   -4.4436    2.7951 F       1  UNL1        0.0000
     17 F           3.4552   -2.7216    1.4938 F       1  UNL1        0.0000
     18 F           2.0085   -6.1960    4.0923 F       1  UNL1        0.0000
     19 F           0.6224   -4.0520    4.2807 F       1  UNL1        0.0000
     20 F           0.3233   -7.0101    1.0908 F       1  UNL1        0.0000
     21 F           1.0650   -4.7895   -0.0110 F       1  UNL1        0.0000
     22 F          -2.6461   -4.4914    0.1547 F       1  UNL1        0.0000
     23 F          -2.7326   -5.4978    2.5570 F       1  UNL1        0.0000
     24 F          -1.6453   -2.4004    4.1397 F       1  UNL1        0.0000
     25 F          -2.6093   -1.2713    1.9920 F       1  UNL1        0.0000
@<TRIPOS>BOND
     1     1     3    1
     2     1     2    1
     3     2    24    1
     4     2     7    1
     5     2    25    1
     6     3    10    1
     7     3    11    1
     8     3     4    1
     9     4    12    1
    10     4     5    1
    11     4    13    1
    12     5    15    1
    13     5    14    1
    14     5     8    1
    15     6    20    1
    16     6     7    1
    17     6     9    1
    18     6    21    1
    19     7    22    1
    20     7    23    1
    21     8     9    1
    22     8    16    1
    23     8    17    1
    24     9    19    1
    25     9    18    1
@<TRIPOS>MOLECULE
S_SiF2_8_cyclic
 25 25 0 0 0
SMALL
GASTEIGER
****
Schrodinger Suite 2023-1.
@<TRIPOS>ATOM
      1 S           0.4316   -1.6080    2.0832 S.3     1  UNL1        0.0000
      2 SI          2.0820   -1.8854    3.4175 Si      1  UNL1        0.0000
      3 SI         -1.0721   -1.4585    3.6023 Si      1  UNL1        0.0000
      4 SI         -2.2669   -3.5407    3.9295 Si      1  UNL1        0.0000
      5 SI         -2.9096   -4.3027    1.7489 Si      1  UNL1        0.0000
      6 SI          2.9166   -4.0841    0.4394 Si      1  UNL1        0.0000
      7 SI          3.9386   -2.9543    2.2821 Si      1  UNL1        0.0000
      8 SI         -1.1047   -4.4060    0.1498 Si      1  UNL1        0.0000
      9 SI          0.9075   -5.1264    1.2247 Si      1  UNL1        0.0000
     10 F          -2.1004   -0.3220    3.0921 F       1  UNL1        0.0000
     11 F          -0.4192   -0.8933    4.9678 F       1  UNL1        0.0000
     12 F          -3.5671   -3.3364    4.8779 F       1  UNL1        0.0000
     13 F          -1.3461   -4.6525    4.6680 F       1  UNL1        0.0000
     14 F          -3.5829   -5.7713    1.8811 F       1  UNL1        0.0000
     15 F          -4.0884   -3.3468    1.1804 F       1  UNL1        0.0000
     16 F          -0.9000   -2.9753   -0.5793 F       1  UNL1        0.0000
     17 F          -1.4779   -5.4371   -1.0438 F       1  UNL1        0.0000
     18 F           0.7670   -4.8015    2.8043 F       1  UNL1        0.0000
     19 F           1.0353   -6.7395    1.1534 F       1  UNL1        0.0000
     20 F           2.5950   -3.0545   -0.7688 F       1  UNL1        0.0000
     21 F           3.9251   -5.1936   -0.1771 F       1  UNL1        0.0000
     22 F           4.7028   -4.0064    3.2522 F       1  UNL1        0.0000
     23 F           5.0504   -1.8851    1.7789 F       1  UNL1        0.0000
     24 F           2.4835   -0.4483    4.0357 F       1  UNL1        0.0000
     25 F           1.5464   -2.8122    4.6279 F       1  UNL1        0.0000
@<TRIPOS>BOND
     1     1     3    1
     2     1     2    1
     3     2    24    1
     4     2     7    1
     5     2    25    1
     6     3    10    1
     7     3    11    1
     8     3     4    1
     9     4    12    1
    10     4     5    1
    11     4    13    1
    12     5    15    1
    13     5    14    1
    14     5     8    1
    15     6    20    1
    16     6     7    1
    17     6     9    1
    18     6    21    1
    19     7    22    1
    20     7    23    1
    21     8     9    1
    22     8    16    1
    23     8    17    1
    24     9    19    1
    25     9    18    1
@<TRIPOS>MOLECULE
S_SiF2_8_cyclic
 25 25 0 0 0
SMALL
GASTEIGER
****
Schrodinger Suite 2023-1.
@<TRIPOS>ATOM
      1 S           0.4315   -1.6082    2.0832 S.3     1  UNL1        0.0000
      2 SI          1.6101   -1.7026    3.8674 Si      1  UNL1        0.0000
      3 SI          1.8361   -0.4653    0.9377 Si      1  UNL1        0.0000
      4 SI          3.1602   -1.8474   -0.5478 Si      1  UNL1        0.0000
      5 SI          1.6152   -3.2659   -1.7094 Si      1  UNL1        0.0000
      6 SI         -0.1135   -5.0801    3.7155 Si      1  UNL1        0.0000
      7 SI          0.9333   -3.5754    5.2507 Si      1  UNL1        0.0000
      8 SI          0.0964   -4.4789   -0.2785 Si      1  UNL1        0.0000
      9 SI          1.2158   -5.1581    1.7239 Si      1  UNL1        0.0000
     10 F           2.7438    0.4374    1.9235 F       1  UNL1        0.0000
     11 F           0.9536    0.5698    0.0665 F       1  UNL1        0.0000
     12 F           4.2434   -2.7384    0.2659 F       1  UNL1        0.0000
     13 F           4.0162   -0.9469   -1.5911 F       1  UNL1        0.0000
     14 F           0.7726   -2.3749   -2.7689 F       1  UNL1        0.0000
     15 F           2.4475   -4.3231   -2.6134 F       1  UNL1        0.0000
     16 F          -0.4695   -5.7869   -1.0505 F       1  UNL1        0.0000
     17 F          -1.2135   -3.5885    0.0557 F       1  UNL1        0.0000
     18 F           1.8695   -6.6274    1.5307 F       1  UNL1        0.0000
     19 F           2.4846   -4.1761    1.9379 F       1  UNL1        0.0000
     20 F          -0.2424   -6.5588    4.3675 F       1  UNL1        0.0000
     21 F          -1.6260   -4.6089    3.3783 F       1  UNL1        0.0000
     22 F          -0.0854   -3.1312    6.4327 F       1  UNL1        0.0000
     23 F           2.2085   -4.2769    5.9674 F       1  UNL1        0.0000
     24 F           3.1470   -1.8696    3.3974 F       1  UNL1        0.0000
     25 F           1.4799   -0.2893    4.6384 F       1  UNL1        0.0000
@<TRIPOS>BOND
     1     1     3    1
     2     1     2    1
     3     2    24    1
     4     2     7    1
     5     2    25    1
     6     3    10    1
     7     3    11    1
     8     3     4    1
     9     4    12    1
    10     4     5    1
    11     4    13    1
    12     5    15    1
    13     5    14    1
    14     5     8    1
    15     6    20    1
    16     6     7    1
    17     6     9    1
    18     6    21    1
    19     7    22    1
    20     7    23    1
    21     8     9    1
    22     8    16    1
    23     8    17    1
    24     9    19    1
    25     9    18    1
@<TRIPOS>MOLECULE
S_SiF2_8_cyclic
 25 25 0 0 0
SMALL
GASTEIGER
****
Schrodinger Suite 2023-1.
@<TRIPOS>ATOM
      1 S           0.4319   -1.6079    2.0834 S.3     1  UNL1        0.0000
      2 SI         -1.3656   -1.0981    3.1322 Si      1  UNL1        0.0000
      3 SI          0.1349   -0.2612    0.4466 Si      1  UNL1        0.0000
      4 SI          1.4036   -0.9700   -1.4943 Si      1  UNL1        0.0000
      5 SI          1.7435   -3.3101   -1.1406 Si      1  UNL1        0.0000
      6 SI         -2.2021   -4.8654    3.0694 Si      1  UNL1        0.0000
      7 SI         -3.1496   -2.6884    2.7352 Si      1  UNL1        0.0000
      8 SI         -0.3065   -4.2481   -0.3297 Si      1  UNL1        0.0000
      9 SI         -0.1758   -5.2798    1.8250 Si      1  UNL1        0.0000
     10 F           0.5337    1.2264    0.9330 F       1  UNL1        0.0000
     11 F          -1.4484   -0.2684    0.1242 F       1  UNL1        0.0000
     12 F           2.8143   -0.1800   -1.6294 F       1  UNL1        0.0000
     13 F           0.5835   -0.7071   -2.8692 F       1  UNL1        0.0000
     14 F           2.1894   -4.0345   -2.5208 F       1  UNL1        0.0000
     15 F           2.9492   -3.5712   -0.0912 F       1  UNL1        0.0000
     16 F          -0.9283   -5.2822   -1.4101 F       1  UNL1        0.0000
     17 F          -1.3952   -3.0536   -0.2402 F       1  UNL1        0.0000
     18 F           0.0505   -6.8748    1.6468 F       1  UNL1        0.0000
     19 F           1.1191   -4.7606    2.6459 F       1  UNL1        0.0000
     20 F          -1.9257   -5.0851    4.6511 F       1  UNL1        0.0000
     21 F          -3.3040   -5.9863    2.6729 F       1  UNL1        0.0000
     22 F          -3.7488   -2.5573    1.2342 F       1  UNL1        0.0000
     23 F          -4.4001   -2.4408    3.7386 F       1  UNL1        0.0000
     24 F          -0.9767   -1.1049    4.7000 F       1  UNL1        0.0000
     25 F          -1.7944    0.4199    2.7823 F       1  UNL1        0.0000
@<TRIPOS>BOND
     1     1     3    1
     2     1     2    1
     3     2    24    1
     4     2     7    1
     5     2    25    1
     6     3    10    1
     7     3    11    1
     8     3     4    1
     9     4    12    1
    10     4     5    1
    11     4    13    1
    12     5    15    1
    13     5    14    1
    14     5     8    1
    15     6    20    1
    16     6     7    1
    17     6     9    1
    18     6    21    1
    19     7    22    1
    20     7    23    1
    21     8     9    1
    22     8    16    1
    23     8    17    1
    24     9    19    1
    25     9    18    1
@<TRIPOS>MOLECULE
S_SiF2_8_cyclic
 25 25 0 0 0
SMALL
GASTEIGER
****
Schrodinger Suite 2023-1.
@<TRIPOS>ATOM
      1 S           0.4317   -1.6082    2.0830 S.3     1  UNL1        0.0000
      2 SI          1.6354    0.0680    1.5146 Si      1  UNL1        0.0000
      3 SI         -1.3954   -0.5133    2.3159 Si      1  UNL1        0.0000
      4 SI         -1.8591    0.0294    4.6311 Si      1  UNL1        0.0000
      5 SI         -1.5689   -2.0008    5.8733 Si      1  UNL1        0.0000
      6 SI          3.9613   -2.0765    3.6104 Si      1  UNL1        0.0000
      7 SI          3.9825   -0.3753    1.9306 Si      1  UNL1        0.0000
      8 SI          0.5370   -3.1175    5.4936 Si      1  UNL1        0.0000
      9 SI          2.2870   -1.5082    5.2271 Si      1  UNL1        0.0000
     10 F          -2.5602   -1.4757    1.7445 F       1  UNL1        0.0000
     11 F          -1.3808    0.7899    1.3610 F       1  UNL1        0.0000
     12 F          -3.3623    0.6109    4.8151 F       1  UNL1        0.0000
     13 F          -0.8635    1.1809    5.1898 F       1  UNL1        0.0000
     14 F          -1.7175   -1.6769    7.4546 F       1  UNL1        0.0000
     15 F          -2.7906   -3.0093    5.5316 F       1  UNL1        0.0000
     16 F           0.4437   -4.0998    4.2103 F       1  UNL1        0.0000
     17 F           0.8837   -4.0896    6.7434 F       1  UNL1        0.0000
     18 F           1.6087   -0.1124    4.7666 F       1  UNL1        0.0000
     19 F           2.9659   -1.1748    6.6594 F       1  UNL1        0.0000
     20 F           3.6637   -3.5307    2.9625 F       1  UNL1        0.0000
     21 F           5.4147   -2.1936    4.3192 F       1  UNL1        0.0000
     22 F           4.7531    0.9501    2.4613 F       1  UNL1        0.0000
     23 F           4.7615   -0.8699    0.5961 F       1  UNL1        0.0000
     24 F           1.3382    0.4050   -0.0367 F       1  UNL1        0.0000
     25 F           1.1284    1.3217    2.3990 F       1  UNL1        0.0000
@<TRIPOS>BOND
     1     1     3    1
     2     1     2    1
     3     2    24    1
     4     2     7    1
     5     2    25    1
     6     3    10    1
     7     3    11    1
     8     3     4    1
     9     4    12    1
    10     4     5    1
    11     4    13    1
    12     5    15    1
    13     5    14    1
    14     5     8    1
    15     6    20    1
    16     6     7    1
    17     6     9    1
    18     6    21    1
    19     7    22    1
    20     7    23    1
    21     8     9    1
    22     8    16    1
    23     8    17    1
    24     9    19    1
    25     9    18    1
@<TRIPOS>MOLECULE
S_SiF2_8_cyclic
 25 25 0 0 0
SMALL
GASTEIGER
****
Schrodinger Suite 2023-1.
@<TRIPOS>ATOM
      1 S           0.4315   -1.6078    2.0832 S.3     1  UNL1        0.0000
      2 SI          0.4479   -3.7087    2.5036 Si      1  UNL1        0.0000
      3 SI          2.4537   -1.4938    1.3909 Si      1  UNL1        0.0000
      4 SI          2.7744    0.4528   -0.0187 Si      1  UNL1        0.0000
      5 SI          0.5785    0.9565   -0.8191 Si      1  UNL1        0.0000
      6 SI         -2.6543   -3.9606    0.2205 Si      1  UNL1        0.0000
      7 SI         -0.5619   -5.0145    0.7301 Si      1  UNL1        0.0000
      8 SI         -0.4895   -1.1033   -1.4157 Si      1  UNL1        0.0000
      9 SI         -2.5039   -1.5924   -0.2213 Si      1  UNL1        0.0000
     10 F           2.7341   -2.8503    0.5590 F       1  UNL1        0.0000
     11 F           3.4319   -1.4910    2.6761 F       1  UNL1        0.0000
     12 F           3.7793    0.1349   -1.2520 F       1  UNL1        0.0000
     13 F           3.4097    1.7042    0.7953 F       1  UNL1        0.0000
     14 F          -0.2830    1.7461    0.3023 F       1  UNL1        0.0000
     15 F           0.6541    1.9460   -2.1011 F       1  UNL1        0.0000
     16 F           0.5579   -2.3041   -1.1304 F       1  UNL1        0.0000
     17 F          -0.7540   -1.1681   -3.0124 F       1  UNL1        0.0000
     18 F          -2.5899   -0.7442    1.1547 F       1  UNL1        0.0000
     19 F          -3.7803   -1.1080   -1.0949 F       1  UNL1        0.0000
     20 F          -3.3162   -4.6964   -1.0634 F       1  UNL1        0.0000
     21 F          -3.6899   -4.2236    1.4390 F       1  UNL1        0.0000
     22 F          -0.7852   -6.5566    1.1814 F       1  UNL1        0.0000
     23 F           0.3802   -5.0673   -0.5887 F       1  UNL1        0.0000
     24 F           1.9511   -4.1877    2.8520 F       1  UNL1        0.0000
     25 F          -0.4078   -3.8917    3.8613 F       1  UNL1        0.0000
@<TRIPOS>BOND
     1     1     3    1
     2     1     2    1
     3     2    24    1
     4     2     7    1
     5     2    25    1
     6     3    10    1
     7     3    11    1
     8     3     4    1
     9     4    12    1
    10     4     5    1
    11     4    13    1
    12     5    15    1
    13     5    14    1
    14     5     8    1
    15     6    20    1
    16     6     7    1
    17     6     9    1
    18     6    21    1
    19     7    22    1
    20     7    23    1
    21     8     9    1
    22     8    16    1
    23     8    17    1
    24     9    19    1
    25     9    18    1
@<TRIPOS>MOLECULE
S_SiF2_8_cyclic
 25 25 0 0 0
SMALL
GASTEIGER
****
Schrodinger Suite 2023-1.
@<TRIPOS>ATOM
      1 S           0.4315   -1.6081    2.0834 S.3     1  UNL1        0.0000
      2 SI          2.3295   -0.8475    2.7332 Si      1  UNL1        0.0000
      3 SI         -0.2818    0.2382    1.2712 Si      1  UNL1        0.0000
      4 SI         -2.7059    0.2578    1.2233 Si      1  UNL1        0.0000
      5 SI         -3.3940   -1.9772    1.7628 Si      1  UNL1        0.0000
      6 SI          0.6566   -1.6024    6.0439 Si      1  UNL1        0.0000
      7 SI          2.2839   -0.1640    5.0553 Si      1  UNL1        0.0000
      8 SI         -2.4950   -2.8319    3.8423 Si      1  UNL1        0.0000
      9 SI         -1.5060   -1.0823    5.1424 Si      1  UNL1        0.0000
     10 F           0.3663    0.4245   -0.1960 F       1  UNL1        0.0000
     11 F           0.2927    1.4083    2.2274 F       1  UNL1        0.0000
     12 F          -3.2733    0.7140   -0.2266 F       1  UNL1        0.0000
     13 F          -3.3195    1.3044    2.3000 F       1  UNL1        0.0000
     14 F          -5.0133   -2.0201    1.8315 F       1  UNL1        0.0000
     15 F          -3.0055   -2.9649    0.5380 F       1  UNL1        0.0000
     16 F          -1.4186   -4.0140    3.5824 F       1  UNL1        0.0000
     17 F          -3.6772   -3.5285    4.7051 F       1  UNL1        0.0000
     18 F          -1.3672    0.2209    4.1911 F       1  UNL1        0.0000
     19 F          -2.5188   -0.6200    6.3189 F       1  UNL1        0.0000
     20 F           1.0350   -3.1521    5.7655 F       1  UNL1        0.0000
     21 F           0.6514   -1.4263    7.6553 F       1  UNL1        0.0000
     22 F           1.8341    1.3858    5.2177 F       1  UNL1        0.0000
     23 F           3.7325   -0.3140    5.7701 F       1  UNL1        0.0000
     24 F           3.3863   -2.0528    2.5331 F       1  UNL1        0.0000
     25 F           2.8056    0.3377    1.7435 F       1  UNL1        0.0000
@<TRIPOS>BOND
     1     1     3    1
     2     1     2    1
     3     2    24    1
     4     2     7    1
     5     2    25    1
     6     3    10    1
     7     3    11    1
     8     3     4    1
     9     4    12    1
    10     4     5    1
    11     4    13    1
    12     5    15    1
    13     5    14    1
    14     5     8    1
    15     6    20    1
    16     6     7    1
    17     6     9    1
    18     6    21    1
    19     7    22    1
    20     7    23    1
    21     8     9    1
    22     8    16    1
    23     8    17    1
    24     9    19    1
    25     9    18    1
@<TRIPOS>MOLECULE
S_SiF2_8_cyclic
 25 25 0 0 0
SMALL
GASTEIGER
****
Schrodinger Suite 2023-1.
@<TRIPOS>ATOM
      1 S           0.4313   -1.6080    2.0829 S.3     1  UNL1        0.0000
      2 SI          0.4998   -3.6538    1.4403 Si      1  UNL1        0.0000
      3 SI         -1.6765   -1.5595    2.4462 Si      1  UNL1        0.0000
      4 SI         -2.5055    0.7144    2.3018 Si      1  UNL1        0.0000
      5 SI         -0.5628    2.1179    2.1743 Si      1  UNL1        0.0000
      6 SI          1.3587   -1.8371   -1.7677 Si      1  UNL1        0.0000
      7 SI          0.3595   -3.8514   -0.9687 Si      1  UNL1        0.0000
      8 SI          0.9708    1.5529    0.3878 Si      1  UNL1        0.0000
      9 SI         -0.0283    0.0246   -1.1598 Si      1  UNL1        0.0000
     10 F          -1.9523   -2.2267    3.8906 F       1  UNL1        0.0000
     11 F          -2.3544   -2.5004    1.3198 F       1  UNL1        0.0000
     12 F          -3.4261    1.0993    3.5810 F       1  UNL1        0.0000
     13 F          -3.4365    0.9322    0.9914 F       1  UNL1        0.0000
     14 F          -1.0437    3.6552    1.9898 F       1  UNL1        0.0000
     15 F           0.2069    2.0933    3.6004 F       1  UNL1        0.0000
     16 F           2.3552    0.9415    0.9647 F       1  UNL1        0.0000
     17 F           1.4086    2.8977   -0.4043 F       1  UNL1        0.0000
     18 F          -1.3859   -0.5441   -0.4845 F       1  UNL1        0.0000
     19 F          -0.5324    0.8163   -2.4799 F       1  UNL1        0.0000
     20 F           2.8470   -1.6669   -1.1527 F       1  UNL1        0.0000
     21 F           1.5446   -1.8982   -3.3769 F       1  UNL1        0.0000
     22 F          -1.1777   -3.9535   -1.4756 F       1  UNL1        0.0000
     23 F           1.1299   -5.1665   -1.5247 F       1  UNL1        0.0000
     24 F           1.9128   -4.2388    1.9608 F       1  UNL1        0.0000
     25 F          -0.6462   -4.4997    2.2031 F       1  UNL1        0.0000
@<TRIPOS>BOND
     1     1     3    1
     2     1     2    1
     3     2    24    1
     4     2     7    1
     5     2    25    1
     6     3    10    1
     7     3    11    1
     8     3     4    1
     9     4    12    1
    10     4     5    1
    11     4    13    1
    12     5    15    1
    13     5    14    1
    14     5     8    1
    15     6    20    1
    16     6     7    1
    17     6     9    1
    18     6    21    1
    19     7    22    1
    20     7    23    1
    21     8     9    1
    22     8    16    1
    23     8    17    1
    24     9    19    1
    25     9    18    1
@<TRIPOS>MOLECULE
S_SiF2_8_cyclic
 25 25 0 0 0
SMALL
GASTEIGER
****
Schrodinger Suite 2023-1.
@<TRIPOS>ATOM
      1 S           0.4316   -1.6081    2.0832 S.3     1  UNL1        0.0000
      2 SI          1.5176   -0.4616    0.6398 Si      1  UNL1        0.0000
      3 SI          0.7748   -3.5135    1.1586 Si      1  UNL1        0.0000
      4 SI         -1.0454   -4.1502   -0.3053 Si      1  UNL1        0.0000
      5 SI         -2.9578   -3.1111    0.6737 Si      1  UNL1        0.0000
      6 SI         -0.7340    2.0435    2.5077 Si      1  UNL1        0.0000
      7 SI          0.7281    1.8307    0.6165 Si      1  UNL1        0.0000
      8 SI         -2.7407   -0.7282    0.4884 Si      1  UNL1        0.0000
      9 SI         -2.5318    0.4230    2.5767 Si      1  UNL1        0.0000
     10 F           0.9107   -4.5783    2.3659 F       1  UNL1        0.0000
     11 F           2.2048   -3.5008    0.4063 F       1  UNL1        0.0000
     12 F          -1.2210   -5.7599   -0.4056 F       1  UNL1        0.0000
     13 F          -0.8224   -3.6031   -1.8157 F       1  UNL1        0.0000
     14 F          -4.3120   -3.6115   -0.0635 F       1  UNL1        0.0000
     15 F          -3.1042   -3.5537    2.2244 F       1  UNL1        0.0000
     16 F          -3.9660   -0.1084   -0.3707 F       1  UNL1        0.0000
     17 F          -1.4212   -0.3985   -0.3907 F       1  UNL1        0.0000
     18 F          -3.9307    1.1705    2.9110 F       1  UNL1        0.0000
     19 F          -2.3289   -0.6378    3.7837 F       1  UNL1        0.0000
     20 F           0.1414    1.9656    3.8695 F       1  UNL1        0.0000
     21 F          -1.3688    3.5354    2.5084 F       1  UNL1        0.0000
     22 F          -0.0753    2.1756   -0.7499 F       1  UNL1        0.0000
     23 F           1.9554    2.8885    0.7001 F       1  UNL1        0.0000
     24 F           3.0896   -0.5697    0.9932 F       1  UNL1        0.0000
     25 F           1.2726   -1.1779   -0.7886 F       1  UNL1        0.0000
@<TRIPOS>BOND
     1     1     3    1
     2     1     2    1
     3     2    24    1
     4     2     7    1
     5     2    25    1
     6     3    10    1
     7     3    11    1
     8     3     4    1
     9     4    12    1
    10     4     5    1
    11     4    13    1
    12     5    15    1
    13     5    14    1
    14     5     8    1
    15     6    20    1
    16     6     7    1
    17     6     9    1
    18     6    21    1
    19     7    22    1
    20     7    23    1
    21     8     9    1
    22     8    16    1
    23     8    17    1
    24     9    19    1
    25     9    18    1
@<TRIPOS>MOLECULE
S_SiF2_8_cyclic
 25 25 0 0 0
SMALL
GASTEIGER
****
Schrodinger Suite 2023-1.
@<TRIPOS>ATOM
      1 S           0.4315   -1.6081    2.0832 S.3     1  UNL1        0.0000
      2 SI          2.3317   -1.1882    2.9867 Si      1  UNL1        0.0000
      3 SI          0.4403   -3.7044    2.5106 Si      1  UNL1        0.0000
      4 SI         -1.8264   -4.5632    2.5661 Si      1  UNL1        0.0000
      5 SI         -3.2221   -2.7941    1.7402 Si      1  UNL1        0.0000
      6 SI         -0.0218    0.6551    5.3091 Si      1  UNL1        0.0000
      7 SI          2.0990   -0.4386    5.2769 Si      1  UNL1        0.0000
      8 SI         -2.9776   -0.6894    2.9121 Si      1  UNL1        0.0000
      9 SI         -1.7514   -0.9693    4.9486 Si      1  UNL1        0.0000
     10 F           1.1639   -3.8734    3.9463 F       1  UNL1        0.0000
     11 F           1.3519   -4.4392    1.3986 F       1  UNL1        0.0000
     12 F          -2.2773   -4.9721    4.0697 F       1  UNL1        0.0000
     13 F          -1.9819   -5.9038    1.6658 F       1  UNL1        0.0000
     14 F          -2.9411   -2.5884    0.1573 F       1  UNL1        0.0000
     15 F          -4.7697   -3.2694    1.8275 F       1  UNL1        0.0000
     16 F          -4.4400   -0.0798    3.2546 F       1  UNL1        0.0000
     17 F          -2.2689    0.4300    1.9804 F       1  UNL1        0.0000
     18 F          -2.7663   -1.0122    6.2102 F       1  UNL1        0.0000
     19 F          -1.0771   -2.4414    4.9200 F       1  UNL1        0.0000
     20 F          -0.2463    1.4107    6.7256 F       1  UNL1        0.0000
     21 F          -0.0750    1.8091    4.1744 F       1  UNL1        0.0000
     22 F           3.2973    0.5601    5.7228 F       1  UNL1        0.0000
     23 F           2.1048   -1.6804    6.3202 F       1  UNL1        0.0000
     24 F           3.2945   -2.4784    2.8476 F       1  UNL1        0.0000
     25 F           3.0054   -0.0251    2.0906 F       1  UNL1        0.0000
@<TRIPOS>BOND
     1     1     3    1
     2     1     2    1
     3     2    24    1
     4     2     7    1
     5     2    25    1
     6     3    10    1
     7     3    11    1
     8     3     4    1
     9     4    12    1
    10     4     5    1
    11     4    13    1
    12     5    15    1
    13     5    14    1
    14     5     8    1
    15     6    20    1
    16     6     7    1
    17     6     9    1
    18     6    21    1
    19     7    22    1
    20     7    23    1
    21     8     9    1
    22     8    16    1
    23     8    17    1
    24     9    19    1
    25     9    18    1
@<TRIPOS>MOLECULE
S_SiF2_8_cyclic
 25 25 0 0 0
SMALL
GASTEIGER
****
Schrodinger Suite 2023-1.
@<TRIPOS>ATOM
      1 S           0.4316   -1.6082    2.0832 S.3     1  UNL1        0.0000
      2 SI          1.0052   -2.8821    3.7115 Si      1  UNL1        0.0000
      3 SI         -1.0601   -0.5216    3.1656 Si      1  UNL1        0.0000
      4 SI         -2.6938    0.4163    1.6392 Si      1  UNL1        0.0000
      5 SI         -1.8034    0.0845   -0.5647 Si      1  UNL1        0.0000
      6 SI         -0.5867   -5.3703    1.3437 Si      1  UNL1        0.0000
      7 SI         -0.1713   -4.9975    3.6639 Si      1  UNL1        0.0000
      8 SI         -1.2308   -2.2103   -1.0832 Si      1  UNL1        0.0000
      9 SI         -2.1315   -3.7168    0.5442 Si      1  UNL1        0.0000
     10 F          -0.3167    0.6097    4.0460 F       1  UNL1        0.0000
     11 F          -1.7468   -1.5773    4.1791 F       1  UNL1        0.0000
     12 F          -2.9580    1.9892    1.9360 F       1  UNL1        0.0000
     13 F          -4.1336   -0.3187    1.7744 F       1  UNL1        0.0000
     14 F          -2.8866    0.6153   -1.6480 F       1  UNL1        0.0000
     15 F          -0.5119    1.0425   -0.7674 F       1  UNL1        0.0000
     16 F           0.3720   -2.4093   -1.2048 F       1  UNL1        0.0000
     17 F          -1.8105   -2.6026   -2.5452 F       1  UNL1        0.0000
     18 F          -2.6398   -2.8355    1.8042 F       1  UNL1        0.0000
     19 F          -3.4743   -4.4192   -0.0278 F       1  UNL1        0.0000
     20 F           0.7996   -5.3094    0.5089 F       1  UNL1        0.0000
     21 F          -1.1846   -6.8587    1.1088 F       1  UNL1        0.0000
     22 F          -1.5716   -4.9258    4.4792 F       1  UNL1        0.0000
     23 F           0.6975   -6.2004    4.3200 F       1  UNL1        0.0000
     24 F           2.5931   -3.1297    3.5474 F       1  UNL1        0.0000
     25 F           0.8145   -2.0939    5.1091 F       1  UNL1        0.0000
@<TRIPOS>BOND
     1     1     3    1
     2     1     2    1
     3     2    24    1
     4     2     7    1
     5     2    25    1
     6     3    10    1
     7     3    11    1
     8     3     4    1
     9     4    12    1
    10     4     5    1
    11     4    13    1
    12     5    15    1
    13     5    14    1
    14     5     8    1
    15     6    20    1
    16     6     7    1
    17     6     9    1
    18     6    21    1
    19     7    22    1
    20     7    23    1
    21     8     9    1
    22     8    16    1
    23     8    17    1
    24     9    19    1
    25     9    18    1
@<TRIPOS>MOLECULE
S_SiF2_8_cyclic
 25 25 0 0 0
SMALL
GASTEIGER
****
Schrodinger Suite 2023-1.
@<TRIPOS>ATOM
      1 S           0.4317   -1.6082    2.0833 S.3     1  UNL1        0.0000
      2 SI         -0.1261   -2.7539    0.3648 Si      1  UNL1        0.0000
      3 SI         -1.3105   -0.3562    2.0920 Si      1  UNL1        0.0000
      4 SI         -0.9310    1.7305    0.9245 Si      1  UNL1        0.0000
      5 SI          1.3997    2.1424    1.2303 Si      1  UNL1        0.0000
      6 SI          3.6593   -3.2986    0.8207 Si      1  UNL1        0.0000
      7 SI          1.8403   -3.6989   -0.6929 Si      1  UNL1        0.0000
      8 SI          2.6565    0.4692    0.0551 Si      1  UNL1        0.0000
      9 SI          3.9476   -0.9799    1.4561 Si      1  UNL1        0.0000
     10 F          -1.6453   -0.0667    3.6456 F       1  UNL1        0.0000
     11 F          -2.5716   -1.1786    1.5052 F       1  UNL1        0.0000
     12 F          -1.8378    2.9398    1.5140 F       1  UNL1        0.0000
     13 F          -1.2754    1.6073   -0.6556 F       1  UNL1        0.0000
     14 F           1.7878    3.6204    0.6894 F       1  UNL1        0.0000
     15 F           1.7687    2.1331    2.8070 F       1  UNL1        0.0000
     16 F           3.6045    1.1509   -1.0674 F       1  UNL1        0.0000
     17 F           1.6253   -0.4508   -0.7891 F       1  UNL1        0.0000
     18 F           5.5119   -0.5709    1.3414 F       1  UNL1        0.0000
     19 F           3.5684   -0.7393    3.0123 F       1  UNL1        0.0000
     20 F           3.4672   -4.2200    2.1401 F       1  UNL1        0.0000
     21 F           5.0298   -3.8327    0.1388 F       1  UNL1        0.0000
     22 F           2.1449   -3.0024   -2.1259 F       1  UNL1        0.0000
     23 F           1.6591   -5.2837   -0.9885 F       1  UNL1        0.0000
     24 F          -1.1777   -3.8852    0.8358 F       1  UNL1        0.0000
     25 F          -0.8931   -1.7373   -0.6310 F       1  UNL1        0.0000
@<TRIPOS>BOND
     1     1     3    1
     2     1     2    1
     3     2    24    1
     4     2     7    1
     5     2    25    1
     6     3    10    1
     7     3    11    1
     8     3     4    1
     9     4    12    1
    10     4     5    1
    11     4    13    1
    12     5    15    1
    13     5    14    1
    14     5     8    1
    15     6    20    1
    16     6     7    1
    17     6     9    1
    18     6    21    1
    19     7    22    1
    20     7    23    1
    21     8     9    1
    22     8    16    1
    23     8    17    1
    24     9    19    1
    25     9    18    1
@<TRIPOS>MOLECULE
S_SiF2_8_cyclic
 25 25 0 0 0
SMALL
GASTEIGER
****
Schrodinger Suite 2023-1.
@<TRIPOS>ATOM
      1 S           0.4314   -1.6082    2.0831 S.3     1  UNL1        0.0000
      2 SI          2.1094   -0.2978    2.2935 Si      1  UNL1        0.0000
      3 SI         -0.3254   -1.3223    4.0701 Si      1  UNL1        0.0000
      4 SI         -2.0298    0.3953    4.1511 Si      1  UNL1        0.0000
      5 SI         -3.0491    0.2932    1.9956 Si      1  UNL1        0.0000
      6 SI          1.5960   -0.7641   -1.4953 Si      1  UNL1        0.0000
      7 SI          2.8208    0.5165    0.1233 Si      1  UNL1        0.0000
      8 SI         -1.4599    0.9925    0.3386 Si      1  UNL1        0.0000
      9 SI         -0.8076   -0.7156   -1.2062 Si      1  UNL1        0.0000
     10 F           0.9016   -1.0312    5.0804 F       1  UNL1        0.0000
     11 F          -0.9510   -2.7425    4.5189 F       1  UNL1        0.0000
     12 F          -1.3912    1.8653    4.3995 F       1  UNL1        0.0000
     13 F          -3.1059    0.1398    5.3380 F       1  UNL1        0.0000
     14 F          -3.5689   -1.2100    1.6918 F       1  UNL1        0.0000
     15 F          -4.3646    1.2391    1.9476 F       1  UNL1        0.0000
     16 F          -0.1243    1.5113    1.0932 F       1  UNL1        0.0000
     17 F          -2.0041    2.2911   -0.4619 F       1  UNL1        0.0000
     18 F          -1.3768   -2.1537   -0.7253 F       1  UNL1        0.0000
     19 F          -1.5256   -0.4406   -2.6332 F       1  UNL1        0.0000
     20 F           1.9602   -0.2143   -2.9764 F       1  UNL1        0.0000
     21 F           2.1302   -2.2942   -1.4791 F       1  UNL1        0.0000
     22 F           4.4212    0.3504   -0.0843 F       1  UNL1        0.0000
     23 F           2.5015    2.0963   -0.0598 F       1  UNL1        0.0000
     24 F           1.6221    0.9172    3.2419 F       1  UNL1        0.0000
     25 F           3.2788   -1.1003    3.0656 F       1  UNL1        0.0000
@<TRIPOS>BOND
     1     1     3    1
     2     1     2    1
     3     2    24    1
     4     2     7    1
     5     2    25    1
     6     3    10    1
     7     3    11    1
     8     3     4    1
     9     4    12    1
    10     4     5    1
    11     4    13    1
    12     5    15    1
    13     5    14    1
    14     5     8    1
    15     6    20    1
    16     6     7    1
    17     6     9    1
    18     6    21    1
    19     7    22    1
    20     7    23    1
    21     8     9    1
    22     8    16    1
    23     8    17    1
    24     9    19    1
    25     9    18    1
@<TRIPOS>MOLECULE
S_SiF2_8_cyclic
 25 25 0 0 0
SMALL
GASTEIGER
****
Schrodinger Suite 2023-1.
@<TRIPOS>ATOM
      1 S           0.4315   -1.6081    2.0832 S.3     1  UNL1        0.0000
      2 SI         -0.2349   -1.4631    0.0554 Si      1  UNL1        0.0000
      3 SI         -1.4620   -2.2024    2.8983 Si      1  UNL1        0.0000
      4 SI         -1.6533   -4.6089    3.0812 Si      1  UNL1        0.0000
      5 SI          0.5931   -5.3377    3.4238 Si      1  UNL1        0.0000
      6 SI          3.6073   -1.6845   -0.1042 Si      1  UNL1        0.0000
      7 SI          1.6326   -1.7313   -1.4674 Si      1  UNL1        0.0000
      8 SI          1.8724   -4.9087    1.4389 Si      1  UNL1        0.0000
      9 SI          3.6197   -3.2944    1.7044 Si      1  UNL1        0.0000
     10 F          -2.6557   -1.5463    2.0292 F       1  UNL1        0.0000
     11 F          -1.5493   -1.5285    4.3639 F       1  UNL1        0.0000
     12 F          -2.2563   -5.2692    1.7281 F       1  UNL1        0.0000
     13 F          -2.6240   -5.0587    4.3008 F       1  UNL1        0.0000
     14 F           1.2413   -4.5770    4.6979 F       1  UNL1        0.0000
     15 F           0.6257   -6.9181    3.7830 F       1  UNL1        0.0000
     16 F           0.8704   -4.3663    0.2880 F       1  UNL1        0.0000
     17 F           2.4727   -6.2876    0.8375 F       1  UNL1        0.0000
     18 F           3.4973   -2.5678    3.1468 F       1  UNL1        0.0000
     19 F           5.0470   -4.0615    1.7451 F       1  UNL1        0.0000
     20 F           4.8980   -1.9445   -1.0503 F       1  UNL1        0.0000
     21 F           3.8167   -0.1869    0.4790 F       1  UNL1        0.0000
     22 F           1.6646   -0.5597   -2.5891 F       1  UNL1        0.0000
     23 F           1.5493   -3.1335   -2.2788 F       1  UNL1        0.0000
     24 F          -1.3284   -2.6361   -0.1493 F       1  UNL1        0.0000
     25 F          -0.9814   -0.0428   -0.1270 F       1  UNL1        0.0000
@<TRIPOS>BOND
     1     1     3    1
     2     1     2    1
     3     2    24    1
     4     2     7    1
     5     2    25    1
     6     3    10    1
     7     3    11    1
     8     3     4    1
     9     4    12    1
    10     4     5    1
    11     4    13    1
    12     5    15    1
    13     5    14    1
    14     5     8    1
    15     6    20    1
    16     6     7    1
    17     6     9    1
    18     6    21    1
    19     7    22    1
    20     7    23    1
    21     8     9    1
    22     8    16    1
    23     8    17    1
    24     9    19    1
    25     9    18    1
@<TRIPOS>MOLECULE
S_SiF2_8_cyclic
 25 25 0 0 0
SMALL
GASTEIGER
****
Schrodinger Suite 2023-1.
@<TRIPOS>ATOM
      1 S           0.4315   -1.6083    2.0831 S.3     1  UNL1        0.0000
      2 SI         -1.5674   -0.8486    2.0136 Si      1  UNL1        0.0000
      3 SI          1.2913   -0.0891    0.8358 Si      1  UNL1        0.0000
      4 SI          1.4063   -0.7785   -1.4822 Si      1  UNL1        0.0000
      5 SI          1.6506   -3.1494   -1.3636 Si      1  UNL1        0.0000
      6 SI         -1.8636   -4.5063    3.1849 Si      1  UNL1        0.0000
      7 SI         -3.1599   -2.6226    2.4561 Si      1  UNL1        0.0000
      8 SI         -0.3623   -4.1045   -0.4715 Si      1  UNL1        0.0000
      9 SI         -0.1064   -5.1696    1.6568 Si      1  UNL1        0.0000
     10 F           2.7792    0.1706    1.4089 F       1  UNL1        0.0000
     11 F           0.4839    1.2963    1.0350 F       1  UNL1        0.0000
     12 F           2.6435   -0.0854   -2.2703 F       1  UNL1        0.0000
     13 F           0.0546   -0.3946   -2.2921 F       1  UNL1        0.0000
     14 F           1.9594   -3.7600   -2.8331 F       1  UNL1        0.0000
     15 F           2.9249   -3.5366   -0.4425 F       1  UNL1        0.0000
     16 F          -1.0267   -5.1312   -1.5336 F       1  UNL1        0.0000
     17 F          -1.4607   -2.9263   -0.3045 F       1  UNL1        0.0000
     18 F          -0.1370   -6.7771    1.4511 F       1  UNL1        0.0000
     19 F           1.3609   -4.8569    2.2674 F       1  UNL1        0.0000
     20 F          -1.2425   -4.1917    4.6484 F       1  UNL1        0.0000
     21 F          -2.8603   -5.7633    3.4196 F       1  UNL1        0.0000
     22 F          -4.0097   -3.0114    1.1302 F       1  UNL1        0.0000
     23 F          -4.2465   -2.1867    3.5792 F       1  UNL1        0.0000
     24 F          -1.6811    0.3622    3.0760 F       1  UNL1        0.0000
     25 F          -1.7712   -0.2377    0.5309 F       1  UNL1        0.0000
@<TRIPOS>BOND
     1     1     3    1
     2     1     2    1
     3     2    24    1
     4     2     7    1
     5     2    25    1
     6     3    10    1
     7     3    11    1
     8     3     4    1
     9     4    12    1
    10     4     5    1
    11     4    13    1
    12     5    15    1
    13     5    14    1
    14     5     8    1
    15     6    20    1
    16     6     7    1
    17     6     9    1
    18     6    21    1
    19     7    22    1
    20     7    23    1
    21     8     9    1
    22     8    16    1
    23     8    17    1
    24     9    19    1
    25     9    18    1
@<TRIPOS>MOLECULE
S_SiF2_8_cyclic
 25 25 0 0 0
SMALL
GASTEIGER
****
Schrodinger Suite 2023-1.
@<TRIPOS>ATOM
      1 S           0.4316   -1.6081    2.0832 S.3     1  UNL1        0.0000
      2 SI          0.1597   -1.1263    0.0166 Si      1  UNL1        0.0000
      3 SI          0.9303    0.3815    2.7125 Si      1  UNL1        0.0000
      4 SI          3.3240    0.7395    2.7693 Si      1  UNL1        0.0000
      5 SI          4.2145   -1.4193    3.2606 Si      1  UNL1        0.0000
      6 SI          0.6324   -4.9465    0.1615 Si      1  UNL1        0.0000
      7 SI          0.4914   -3.0951   -1.3591 Si      1  UNL1        0.0000
      8 SI          3.7924   -2.8858    1.4083 Si      1  UNL1        0.0000
      9 SI          2.3113   -4.7036    1.8893 Si      1  UNL1        0.0000
     10 F           0.3115    0.5496    4.1953 F       1  UNL1        0.0000
     11 F           0.1614    1.4535    1.7796 F       1  UNL1        0.0000
     12 F           3.7565    1.8363    3.8838 F       1  UNL1        0.0000
     13 F           3.8877    1.2665    1.3427 F       1  UNL1        0.0000
     14 F           5.8067   -1.3214    3.5490 F       1  UNL1        0.0000
     15 F           3.5505   -2.0044    4.6167 F       1  UNL1        0.0000
     16 F           5.1830   -3.4457    0.7949 F       1  UNL1        0.0000
     17 F           3.1376   -2.0209    0.2059 F       1  UNL1        0.0000
     18 F           3.1737   -6.0705    2.0114 F       1  UNL1        0.0000
     19 F           1.6371   -4.5061    3.3487 F       1  UNL1        0.0000
     20 F          -0.8228   -5.2009    0.8280 F       1  UNL1        0.0000
     21 F           0.9404   -6.2933   -0.6869 F       1  UNL1        0.0000
     22 F           1.8510   -2.9917   -2.2378 F       1  UNL1        0.0000
     23 F          -0.7197   -3.2963   -2.4197 F       1  UNL1        0.0000
     24 F          -1.3140   -0.4904   -0.1605 F       1  UNL1        0.0000
     25 F           1.2469    0.0185   -0.3309 F       1  UNL1        0.0000
@<TRIPOS>BOND
     1     1     3    1
     2     1     2    1
     3     2    24    1
     4     2     7    1
     5     2    25    1
     6     3    10    1
     7     3    11    1
     8     3     4    1
     9     4    12    1
    10     4     5    1
    11     4    13    1
    12     5    15    1
    13     5    14    1
    14     5     8    1
    15     6    20    1
    16     6     7    1
    17     6     9    1
    18     6    21    1
    19     7    22    1
    20     7    23    1
    21     8     9    1
    22     8    16    1
    23     8    17    1
    24     9    19    1
    25     9    18    1
@<TRIPOS>MOLECULE
S_SiF2_8_cyclic
 25 25 0 0 0
SMALL
GASTEIGER
****
Schrodinger Suite 2023-1.
@<TRIPOS>ATOM
      1 S           0.4317   -1.6081    2.0832 S.3     1  UNL1        0.0000
      2 SI         -0.3324   -3.1239    3.3853 Si      1  UNL1        0.0000
      3 SI          0.1490    0.0224    3.4485 Si      1  UNL1        0.0000
      4 SI         -1.9562    1.1589    3.0771 Si      1  UNL1        0.0000
      5 SI         -2.3580    0.8715    0.7424 Si      1  UNL1        0.0000
      6 SI         -0.4117   -4.6311   -0.1584 Si      1  UNL1        0.0000
      7 SI         -1.1316   -5.0169    2.0982 Si      1  UNL1        0.0000
      8 SI         -2.7531   -1.4524    0.2911 Si      1  UNL1        0.0000
      9 SI         -1.0961   -2.5002   -1.0823 Si      1  UNL1        0.0000
     10 F           1.3780    1.0388    3.1916 F       1  UNL1        0.0000
     11 F           0.3124   -0.5073    4.9663 F       1  UNL1        0.0000
     12 F          -1.8904    2.7272    3.4874 F       1  UNL1        0.0000
     13 F          -3.1591    0.4943    3.9386 F       1  UNL1        0.0000
     14 F          -3.6309    1.7596    0.2748 F       1  UNL1        0.0000
     15 F          -1.0960    1.4145   -0.1147 F       1  UNL1        0.0000
     16 F          -4.2257   -1.6674   -0.3482 F       1  UNL1        0.0000
     17 F          -2.8020   -2.2494    1.7000 F       1  UNL1        0.0000
     18 F          -1.7021   -2.7173   -2.5699 F       1  UNL1        0.0000
     19 F           0.1684   -1.5094   -1.2895 F       1  UNL1        0.0000
     20 F           1.2000   -4.7827   -0.2369 F       1  UNL1        0.0000
     21 F          -0.9856   -5.8216   -1.0976 F       1  UNL1        0.0000
     22 F          -2.7481   -5.1411    2.1533 F       1  UNL1        0.0000
     23 F          -0.5495   -6.4192    2.6696 F       1  UNL1        0.0000
     24 F           0.8372   -3.5314    4.4215 F       1  UNL1        0.0000
     25 F          -1.5328   -2.4403    4.2249 F       1  UNL1        0.0000
@<TRIPOS>BOND
     1     1     3    1
     2     1     2    1
     3     2    24    1
     4     2     7    1
     5     2    25    1
     6     3    10    1
     7     3    11    1
     8     3     4    1
     9     4    12    1
    10     4     5    1
    11     4    13    1
    12     5    15    1
    13     5    14    1
    14     5     8    1
    15     6    20    1
    16     6     7    1
    17     6     9    1
    18     6    21    1
    19     7    22    1
    20     7    23    1
    21     8     9    1
    22     8    16    1
    23     8    17    1
    24     9    19    1
    25     9    18    1
@<TRIPOS>MOLECULE
S_SiF2_8_cyclic
 25 25 0 0 0
SMALL
GASTEIGER
****
Schrodinger Suite 2023-1.
@<TRIPOS>ATOM
      1 S           0.4314   -1.6079    2.0833 S.3     1  UNL1        0.0000
      2 SI          1.6428   -3.1827    2.8951 Si      1  UNL1        0.0000
      3 SI         -0.5488   -1.1076    3.9164 Si      1  UNL1        0.0000
      4 SI         -2.7112   -0.0473    3.5646 Si      1  UNL1        0.0000
      5 SI         -3.8134   -1.0029    1.6482 Si      1  UNL1        0.0000
      6 SI         -1.6400   -4.6949    1.9187 Si      1  UNL1        0.0000
      7 SI          0.4809   -5.3060    2.8230 Si      1  UNL1        0.0000
      8 SI         -2.3837   -1.4357   -0.2440 Si      1  UNL1        0.0000
      9 SI         -1.4136   -3.6564   -0.2230 Si      1  UNL1        0.0000
     10 F           0.4514   -0.1801    4.7803 F       1  UNL1        0.0000
     11 F          -0.7099   -2.5060    4.7120 F       1  UNL1        0.0000
     12 F          -2.5290    1.5494    3.3461 F       1  UNL1        0.0000
     13 F          -3.6435   -0.2012    4.8834 F       1  UNL1        0.0000
     14 F          -4.5711   -2.3766    2.0534 F       1  UNL1        0.0000
     15 F          -5.0124   -0.0134    1.1897 F       1  UNL1        0.0000
     16 F          -1.2568   -0.2768   -0.3444 F       1  UNL1        0.0000
     17 F          -3.2552   -1.2668   -1.6002 F       1  UNL1        0.0000
     18 F          -2.1276   -4.5848   -1.3429 F       1  UNL1        0.0000
     19 F           0.1568   -3.6357   -0.6226 F       1  UNL1        0.0000
     20 F          -2.6460   -5.9631    1.8534 F       1  UNL1        0.0000
     21 F          -2.3427   -3.6168    2.9040 F       1  UNL1        0.0000
     22 F           0.3230   -5.9704    4.2945 F       1  UNL1        0.0000
     23 F           1.2261   -6.3945    1.8796 F       1  UNL1        0.0000
     24 F           2.9959   -3.2404    2.0144 F       1  UNL1        0.0000
     25 F           2.0854   -2.7781    4.3954 F       1  UNL1        0.0000
@<TRIPOS>BOND
     1     1     3    1
     2     1     2    1
     3     2    24    1
     4     2     7    1
     5     2    25    1
     6     3    10    1
     7     3    11    1
     8     3     4    1
     9     4    12    1
    10     4     5    1
    11     4    13    1
    12     5    15    1
    13     5    14    1
    14     5     8    1
    15     6    20    1
    16     6     7    1
    17     6     9    1
    18     6    21    1
    19     7    22    1
    20     7    23    1
    21     8     9    1
    22     8    16    1
    23     8    17    1
    24     9    19    1
    25     9    18    1
@<TRIPOS>MOLECULE
S_SiF2_8_cyclic
 25 25 0 0 0
SMALL
GASTEIGER
****
Schrodinger Suite 2023-1.
@<TRIPOS>ATOM
      1 S           0.4317   -1.6081    2.0832 S.3     1  UNL1        0.0000
      2 SI          0.9672    0.3702    2.6917 Si      1  UNL1        0.0000
      3 SI          0.1207   -1.1333    0.0132 Si      1  UNL1        0.0000
      4 SI         -2.1583   -0.4200   -0.3879 Si      1  UNL1        0.0000
      5 SI         -3.1011   -0.4729    1.8024 Si      1  UNL1        0.0000
      6 SI         -1.4442   -0.3811    5.7626 Si      1  UNL1        0.0000
      7 SI          0.5511    0.7681    5.0565 Si      1  UNL1        0.0000
      8 SI         -2.9371   -2.6509    2.7750 Si      1  UNL1        0.0000
      9 SI         -1.7167   -2.6033    4.8683 Si      1  UNL1        0.0000
     10 F           0.4608   -2.4661   -0.8340 F       1  UNL1        0.0000
     11 F           1.1989   -0.0154   -0.4320 F       1  UNL1        0.0000
     12 F          -2.9564   -1.4132   -1.3913 F       1  UNL1        0.0000
     13 F          -2.2327    1.0704   -1.0241 F       1  UNL1        0.0000
     14 F          -2.2750    0.5435    2.7571 F       1  UNL1        0.0000
     15 F          -4.6320    0.0573    1.8035 F       1  UNL1        0.0000
     16 F          -2.2516   -3.6469    1.6962 F       1  UNL1        0.0000
     17 F          -4.4275   -3.2404    3.0145 F       1  UNL1        0.0000
     18 F          -2.5185   -3.5025    5.9527 F       1  UNL1        0.0000
     19 F          -0.2680   -3.3173    4.7481 F       1  UNL1        0.0000
     20 F          -1.4558   -0.4576    7.3815 F       1  UNL1        0.0000
     21 F          -2.7613    0.4908    5.4012 F       1  UNL1        0.0000
     22 F           0.4187    2.3576    5.3530 F       1  UNL1        0.0000
     23 F           1.8113    0.2646    5.9447 F       1  UNL1        0.0000
     24 F           2.5135    0.6131    2.2956 F       1  UNL1        0.0000
     25 F           0.0774    1.3574    1.7707 F       1  UNL1        0.0000
@<TRIPOS>BOND
     1     1     3    1
     2     1     2    1
     3     2    24    1
     4     2     7    1
     5     2    25    1
     6     3    10    1
     7     3    11    1
     8     3     4    1
     9     4    12    1
    10     4     5    1
    11     4    13    1
    12     5    15    1
    13     5    14    1
    14     5     8    1
    15     6    20    1
    16     6     7    1
    17     6     9    1
    18     6    21    1
    19     7    22    1
    20     7    23    1
    21     8     9    1
    22     8    16    1
    23     8    17    1
    24     9    19    1
    25     9    18    1
@<TRIPOS>MOLECULE
S_SiF2_8_cyclic
 25 25 0 0 0
SMALL
GASTEIGER
****
Schrodinger Suite 2023-1.
@<TRIPOS>ATOM
      1 S           0.4316   -1.6080    2.0830 S.3     1  UNL1        0.0000
      2 SI         -0.1546   -3.6588    1.9364 Si      1  UNL1        0.0000
      3 SI          0.1205   -1.1338    0.0129 Si      1  UNL1        0.0000
      4 SI          2.1083   -1.5810   -1.2955 Si      1  UNL1        0.0000
      5 SI          3.5998   -2.4776    0.3357 Si      1  UNL1        0.0000
      6 SI          3.0605   -4.2965    4.1875 Si      1  UNL1        0.0000
      7 SI          0.8265   -5.0413    3.6828 Si      1  UNL1        0.0000
      8 SI          3.9626   -0.9406    2.1311 Si      1  UNL1        0.0000
      9 SI          3.3479   -1.9042    4.2681 Si      1  UNL1        0.0000
     10 F          -0.2723    0.4315   -0.0599 F       1  UNL1        0.0000
     11 F          -1.1625   -1.9571   -0.5226 F       1  UNL1        0.0000
     12 F           2.7228   -0.2432   -1.9759 F       1  UNL1        0.0000
     13 F           1.8324   -2.6458   -2.4879 F       1  UNL1        0.0000
     14 F           2.9424   -3.8150    0.9731 F       1  UNL1        0.0000
     15 F           5.0009   -2.9425   -0.3318 F       1  UNL1        0.0000
     16 F           3.1386    0.4195    1.8199 F       1  UNL1        0.0000
     17 F           5.5223   -0.5011    2.1484 F       1  UNL1        0.0000
     18 F           4.5110   -1.5588    5.3429 F       1  UNL1        0.0000
     19 F           2.0153   -1.2220    4.8861 F       1  UNL1        0.0000
     20 F           3.5129   -4.9316    5.6084 F       1  UNL1        0.0000
     21 F           4.1194   -4.9127    3.1270 F       1  UNL1        0.0000
     22 F           0.8419   -6.6006    3.2350 F       1  UNL1        0.0000
     23 F          -0.0814   -4.9844    5.0256 F       1  UNL1        0.0000
     24 F          -1.7681   -3.7186    1.9461 F       1  UNL1        0.0000
     25 F           0.3325   -4.1403    0.4717 F       1  UNL1        0.0000
@<TRIPOS>BOND
     1     1     3    1
     2     1     2    1
     3     2    24    1
     4     2     7    1
     5     2    25    1
     6     3    10    1
     7     3    11    1
     8     3     4    1
     9     4    12    1
    10     4     5    1
    11     4    13    1
    12     5    15    1
    13     5    14    1
    14     5     8    1
    15     6    20    1
    16     6     7    1
    17     6     9    1
    18     6    21    1
    19     7    22    1
    20     7    23    1
    21     8     9    1
    22     8    16    1
    23     8    17    1
    24     9    19    1
    25     9    18    1
@<TRIPOS>MOLECULE
S_SiF2_8_cyclic
 25 25 0 0 0
SMALL
GASTEIGER
****
Schrodinger Suite 2023-1.
@<TRIPOS>ATOM
      1 S           0.4317   -1.6081    2.0831 S.3     1  UNL1        0.0000
      2 SI         -0.8490   -3.0465    3.0308 Si      1  UNL1        0.0000
      3 SI          0.3859   -2.5065    0.1436 Si      1  UNL1        0.0000
      4 SI          2.3402   -1.9474   -1.1953 Si      1  UNL1        0.0000
      5 SI          4.3010   -1.8131    0.1965 Si      1  UNL1        0.0000
      6 SI          2.6460   -4.3760    3.2176 Si      1  UNL1        0.0000
      7 SI          0.4237   -4.9166    3.8947 Si      1  UNL1        0.0000
      8 SI          3.9728   -0.7293    2.3248 Si      1  UNL1        0.0000
      9 SI          3.3390   -2.2614    4.0924 Si      1  UNL1        0.0000
     10 F          -0.9915   -2.0694   -0.5766 F       1  UNL1        0.0000
     11 F           0.3007   -4.0989    0.4107 F       1  UNL1        0.0000
     12 F           2.1173   -0.5333   -1.9577 F       1  UNL1        0.0000
     13 F           2.5596   -3.0442   -2.3704 F       1  UNL1        0.0000
     14 F           4.9191   -3.2887    0.4534 F       1  UNL1        0.0000
     15 F           5.4663   -1.0355   -0.6187 F       1  UNL1        0.0000
     16 F           2.9107    0.4815    2.1548 F       1  UNL1        0.0000
     17 F           5.3539    0.0049    2.7500 F       1  UNL1        0.0000
     18 F           4.5841   -2.4865    5.1049 F       1  UNL1        0.0000
     19 F           2.1435   -1.6665    5.0106 F       1  UNL1        0.0000
     20 F           3.6907   -5.5480    3.6171 F       1  UNL1        0.0000
     21 F           2.6931   -4.2664    1.6013 F       1  UNL1        0.0000
     22 F          -0.0560   -6.3311    3.2617 F       1  UNL1        0.0000
     23 F           0.3210   -5.0504    5.5078 F       1  UNL1        0.0000
     24 F          -1.6202   -2.2787    4.2247 F       1  UNL1        0.0000
     25 F          -1.9799   -3.5117    1.9748 F       1  UNL1        0.0000
@<TRIPOS>BOND
     1     1     3    1
     2     1     2    1
     3     2    24    1
     4     2     7    1
     5     2    25    1
     6     3    10    1
     7     3    11    1
     8     3     4    1
     9     4    12    1
    10     4     5    1
    11     4    13    1
    12     5    15    1
    13     5    14    1
    14     5     8    1
    15     6    20    1
    16     6     7    1
    17     6     9    1
    18     6    21    1
    19     7    22    1
    20     7    23    1
    21     8     9    1
    22     8    16    1
    23     8    17    1
    24     9    19    1
    25     9    18    1
@<TRIPOS>MOLECULE
S_SiF2_8_cyclic
 25 25 0 0 0
SMALL
GASTEIGER
****
Schrodinger Suite 2023-1.
@<TRIPOS>ATOM
      1 S           0.4314   -1.6080    2.0831 S.3     1  UNL1        0.0000
      2 SI          2.4196   -2.3936    2.0593 Si      1  UNL1        0.0000
      3 SI          0.8867    0.1282    3.2601 Si      1  UNL1        0.0000
      4 SI          1.5748    1.9794    1.8592 Si      1  UNL1        0.0000
      5 SI          1.5304    1.0120   -0.3207 Si      1  UNL1        0.0000
      6 SI          1.6701   -3.0181   -1.7953 Si      1  UNL1        0.0000
      7 SI          2.8321   -3.8414    0.1469 Si      1  UNL1        0.0000
      8 SI         -0.6380    0.1601   -0.8579 Si      1  UNL1        0.0000
      9 SI         -0.5618   -2.2043   -1.3847 Si      1  UNL1        0.0000
     10 F           2.0113   -0.2637    4.3521 F       1  UNL1        0.0000
     11 F          -0.4494    0.5023    4.0875 F       1  UNL1        0.0000
     12 F           3.0594    2.5152    2.2343 F       1  UNL1        0.0000
     13 F           0.5661    3.2456    1.9569 F       1  UNL1        0.0000
     14 F           2.0462    2.0576   -1.4456 F       1  UNL1        0.0000
     15 F           2.5621   -0.2372   -0.3645 F       1  UNL1        0.0000
     16 F          -1.2398    0.9895   -2.1132 F       1  UNL1        0.0000
     17 F          -1.6361    0.4736    0.3796 F       1  UNL1        0.0000
     18 F          -1.2631   -3.1090   -0.2389 F       1  UNL1        0.0000
     19 F          -1.4597   -2.4663   -2.7086 F       1  UNL1        0.0000
     20 F           2.5266   -1.8474   -2.5173 F       1  UNL1        0.0000
     21 F           1.6067   -4.1989   -2.9038 F       1  UNL1        0.0000
     22 F           2.3471   -5.3552    0.4690 F       1  UNL1        0.0000
     23 F           4.4226   -3.9500   -0.1540 F       1  UNL1        0.0000
     24 F           3.3910   -1.1013    2.0303 F       1  UNL1        0.0000
     25 F           2.6743   -3.1503    3.4628 F       1  UNL1        0.0000
@<TRIPOS>BOND
     1     1     3    1
     2     1     2    1
     3     2    24    1
     4     2     7    1
     5     2    25    1
     6     3    10    1
     7     3    11    1
     8     3     4    1
     9     4    12    1
    10     4     5    1
    11     4    13    1
    12     5    15    1
    13     5    14    1
    14     5     8    1
    15     6    20    1
    16     6     7    1
    17     6     9    1
    18     6    21    1
    19     7    22    1
    20     7    23    1
    21     8     9    1
    22     8    16    1
    23     8    17    1
    24     9    19    1
    25     9    18    1
@<TRIPOS>MOLECULE
S_SiF2_8_cyclic
 25 25 0 0 0
SMALL
GASTEIGER
****
Schrodinger Suite 2023-1.
@<TRIPOS>ATOM
      1 S           0.4316   -1.6080    2.0833 S.3     1  UNL1        0.0000
      2 SI          1.5091   -3.4078    2.5377 Si      1  UNL1        0.0000
      3 SI          2.0470   -0.2676    2.4901 Si      1  UNL1        0.0000
      4 SI          1.8320    1.8469    1.3042 Si      1  UNL1        0.0000
      5 SI          0.8729    1.4924   -0.8763 Si      1  UNL1        0.0000
      6 SI          2.1581   -2.6002   -1.0599 Si      1  UNL1        0.0000
      7 SI          2.6646   -4.2522    0.5844 Si      1  UNL1        0.0000
      8 SI         -0.9374   -0.0978   -0.9515 Si      1  UNL1        0.0000
      9 SI         -0.2011   -2.3682   -1.3717 Si      1  UNL1        0.0000
     10 F           3.3832   -1.0560    2.0348 F       1  UNL1        0.0000
     11 F           2.1353   -0.0633    4.0893 F       1  UNL1        0.0000
     12 F           3.2753    2.5758    1.1713 F       1  UNL1        0.0000
     13 F           0.9024    2.8753    2.1459 F       1  UNL1        0.0000
     14 F           0.3519    2.9145   -1.4537 F       1  UNL1        0.0000
     15 F           2.0132    1.0338   -1.9322 F       1  UNL1        0.0000
     16 F          -1.9608    0.3386   -2.1302 F       1  UNL1        0.0000
     17 F          -1.8145    0.0197    0.4050 F       1  UNL1        0.0000
     18 F          -0.9551   -3.4369   -0.4150 F       1  UNL1        0.0000
     19 F          -0.5834   -2.8046   -2.8847 F       1  UNL1        0.0000
     20 F           2.7201   -1.1656   -0.5570 F       1  UNL1        0.0000
     21 F           2.9087   -2.9078   -2.4623 F       1  UNL1        0.0000
     22 F           2.1321   -5.7142    0.1267 F       1  UNL1        0.0000
     23 F           4.2648   -4.3741    0.8219 F       1  UNL1        0.0000
     24 F           2.5172   -3.1151    3.7660 F       1  UNL1        0.0000
     25 F           0.4291   -4.4832    3.0733 F       1  UNL1        0.0000
@<TRIPOS>BOND
     1     1     3    1
     2     1     2    1
     3     2    24    1
     4     2     7    1
     5     2    25    1
     6     3    10    1
     7     3    11    1
     8     3     4    1
     9     4    12    1
    10     4     5    1
    11     4    13    1
    12     5    15    1
    13     5    14    1
    14     5     8    1
    15     6    20    1
    16     6     7    1
    17     6     9    1
    18     6    21    1
    19     7    22    1
    20     7    23    1
    21     8     9    1
    22     8    16    1
    23     8    17    1
    24     9    19    1
    25     9    18    1
@<TRIPOS>MOLECULE
S_SiF2_8_cyclic
 25 25 0 0 0
SMALL
GASTEIGER
****
Schrodinger Suite 2023-1.
@<TRIPOS>ATOM
      1 S           0.4316   -1.6082    2.0833 S.3     1  UNL1        0.0000
      2 SI          2.1285   -0.5267    2.8302 Si      1  UNL1        0.0000
      3 SI         -0.2440   -0.0785    0.7511 Si      1  UNL1        0.0000
      4 SI         -2.6237   -0.2405    0.2667 Si      1  UNL1        0.0000
      5 SI         -3.8297   -0.9777    2.2167 Si      1  UNL1        0.0000
      6 SI         -0.8178    0.4385    4.9289 Si      1  UNL1        0.0000
      7 SI          1.5268    0.8346    4.7404 Si      1  UNL1        0.0000
      8 SI         -2.7561   -2.7252    3.4837 Si      1  UNL1        0.0000
      9 SI         -1.2936   -1.8860    5.2244 Si      1  UNL1        0.0000
     10 F           0.6565   -0.1488   -0.5873 F       1  UNL1        0.0000
     11 F           0.1051    1.3174    1.4888 F       1  UNL1        0.0000
     12 F          -2.8827   -1.2750   -0.9553 F       1  UNL1        0.0000
     13 F          -3.2006    1.1873   -0.2439 F       1  UNL1        0.0000
     14 F          -4.1326    0.2706    3.2044 F       1  UNL1        0.0000
     15 F          -5.3004   -1.4830    1.7597 F       1  UNL1        0.0000
     16 F          -1.9888   -3.7307    2.4721 F       1  UNL1        0.0000
     17 F          -3.9010   -3.6440    4.1710 F       1  UNL1        0.0000
     18 F          -1.9752   -2.1091    6.6774 F       1  UNL1        0.0000
     19 F           0.1087   -2.6962    5.2808 F       1  UNL1        0.0000
     20 F          -1.4776    1.3281    6.1113 F       1  UNL1        0.0000
     21 F          -1.5440    0.9075    3.5579 F       1  UNL1        0.0000
     22 F           1.8394    2.4077    4.4968 F       1  UNL1        0.0000
     23 F           2.3045    0.3920    6.0930 F       1  UNL1        0.0000
     24 F           3.2454   -1.6209    3.2364 F       1  UNL1        0.0000
     25 F           2.7572    0.3504    1.6277 F       1  UNL1        0.0000
@<TRIPOS>BOND
     1     1     3    1
     2     1     2    1
     3     2    24    1
     4     2     7    1
     5     2    25    1
     6     3    10    1
     7     3    11    1
     8     3     4    1
     9     4    12    1
    10     4     5    1
    11     4    13    1
    12     5    15    1
    13     5    14    1
    14     5     8    1
    15     6    20    1
    16     6     7    1
    17     6     9    1
    18     6    21    1
    19     7    22    1
    20     7    23    1
    21     8     9    1
    22     8    16    1
    23     8    17    1
    24     9    19    1
    25     9    18    1
@<TRIPOS>MOLECULE
S_SiF2_8_cyclic
 25 25 0 0 0
SMALL
GASTEIGER
****
Schrodinger Suite 2023-1.
@<TRIPOS>ATOM
      1 S           0.4316   -1.6081    2.0830 S.3     1  UNL1        0.0000
      2 SI         -0.6327   -1.3776    3.9326 Si      1  UNL1        0.0000
      3 SI         -0.9610   -0.5172    0.8822 Si      1  UNL1        0.0000
      4 SI         -0.8786   -1.1573   -1.4645 Si      1  UNL1        0.0000
      5 SI         -0.4562   -3.5188   -1.6764 Si      1  UNL1        0.0000
      6 SI         -2.0140   -4.4090    2.2244 Si      1  UNL1        0.0000
      7 SI         -2.2474   -3.1556    4.2403 Si      1  UNL1        0.0000
      8 SI          1.1839   -4.4057   -0.1483 Si      1  UNL1        0.0000
      9 SI          0.2260   -5.1934    1.9338 Si      1  UNL1        0.0000
     10 F          -0.6764    1.0579    1.0946 F       1  UNL1        0.0000
     11 F          -2.4138   -0.8302    1.5193 F       1  UNL1        0.0000
     12 F           0.2810   -0.3267   -2.2367 F       1  UNL1        0.0000
     13 F          -2.2641   -0.7653   -2.2120 F       1  UNL1        0.0000
     14 F          -1.8310   -4.3603   -1.5109 F       1  UNL1        0.0000
     15 F           0.0142   -3.8297   -3.1960 F       1  UNL1        0.0000
     16 F           2.3476   -3.3051    0.0916 F       1  UNL1        0.0000
     17 F           1.9443   -5.6438   -0.8668 F       1  UNL1        0.0000
     18 F           0.2313   -6.8135    1.9694 F       1  UNL1        0.0000
     19 F           1.1034   -4.7347    3.2167 F       1  UNL1        0.0000
     20 F          -3.0773   -5.6295    2.1569 F       1  UNL1        0.0000
     21 F          -2.3545   -3.4489    0.9638 F       1  UNL1        0.0000
     22 F          -3.7587   -2.5907    4.4096 F       1  UNL1        0.0000
     23 F          -1.9270   -4.0730    5.5387 F       1  UNL1        0.0000
     24 F           0.4670   -1.3921    5.1160 F       1  UNL1        0.0000
     25 F          -1.3199    0.0844    3.9591 F       1  UNL1        0.0000
@<TRIPOS>BOND
     1     1     3    1
     2     1     2    1
     3     2    24    1
     4     2     7    1
     5     2    25    1
     6     3    10    1
     7     3    11    1
     8     3     4    1
     9     4    12    1
    10     4     5    1
    11     4    13    1
    12     5    15    1
    13     5    14    1
    14     5     8    1
    15     6    20    1
    16     6     7    1
    17     6     9    1
    18     6    21    1
    19     7    22    1
    20     7    23    1
    21     8     9    1
    22     8    16    1
    23     8    17    1
    24     9    19    1
    25     9    18    1
@<TRIPOS>MOLECULE
S_SiF2_8_cyclic
 25 25 0 0 0
SMALL
GASTEIGER
****
Schrodinger Suite 2023-1.
@<TRIPOS>ATOM
      1 S           0.4318   -1.6081    2.0831 S.3     1  UNL1        0.0000
      2 SI         -0.5248   -2.7001    0.5021 Si      1  UNL1        0.0000
      3 SI          0.5524   -3.2471    3.4506 Si      1  UNL1        0.0000
      4 SI          0.6768   -2.5243    5.7713 Si      1  UNL1        0.0000
      5 SI         -0.6781   -0.5627    6.1127 Si      1  UNL1        0.0000
      6 SI         -3.2215   -1.4190    2.7604 Si      1  UNL1        0.0000
      7 SI         -2.9344   -2.6449    0.7346 Si      1  UNL1        0.0000
      8 SI         -0.5616    1.0804    4.3524 Si      1  UNL1        0.0000
      9 SI         -2.2257    0.7504    2.6217 Si      1  UNL1        0.0000
     10 F           1.8163   -4.1583    3.0273 F       1  UNL1        0.0000
     11 F          -0.7794   -4.1251    3.1861 F       1  UNL1        0.0000
     12 F           2.2125   -2.2020    6.1815 F       1  UNL1        0.0000
     13 F           0.2025   -3.7148    6.7661 F       1  UNL1        0.0000
     14 F          -2.2288   -0.9743    6.3394 F       1  UNL1        0.0000
     15 F          -0.2471    0.1308    7.5129 F       1  UNL1        0.0000
     16 F           0.9429    1.1235    3.7542 F       1  UNL1        0.0000
     17 F          -0.7776    2.5499    5.0015 F       1  UNL1        0.0000
     18 F          -3.3843    1.8767    2.7437 F       1  UNL1        0.0000
     19 F          -1.6021    0.9376    1.1377 F       1  UNL1        0.0000
     20 F          -4.7833   -1.3226    3.1805 F       1  UNL1        0.0000
     21 F          -2.4822   -2.2113    3.9656 F       1  UNL1        0.0000
     22 F          -3.5748   -4.1308    0.8508 F       1  UNL1        0.0000
     23 F          -3.6651   -1.9003   -0.5072 F       1  UNL1        0.0000
     24 F          -0.0681   -2.0164   -0.8885 F       1  UNL1        0.0000
     25 F           0.0540   -4.2085    0.4869 F       1  UNL1        0.0000
@<TRIPOS>BOND
     1     1     3    1
     2     1     2    1
     3     2    24    1
     4     2     7    1
     5     2    25    1
     6     3    10    1
     7     3    11    1
     8     3     4    1
     9     4    12    1
    10     4     5    1
    11     4    13    1
    12     5    15    1
    13     5    14    1
    14     5     8    1
    15     6    20    1
    16     6     7    1
    17     6     9    1
    18     6    21    1
    19     7    22    1
    20     7    23    1
    21     8     9    1
    22     8    16    1
    23     8    17    1
    24     9    19    1
    25     9    18    1
@<TRIPOS>MOLECULE
S_SiF2_8_cyclic
 25 25 0 0 0
SMALL
GASTEIGER
****
Schrodinger Suite 2023-1.
@<TRIPOS>ATOM
      1 S           0.4317   -1.6081    2.0831 S.3     1  UNL1        0.0000
      2 SI          1.7368   -0.3504    3.2147 Si      1  UNL1        0.0000
      3 SI         -0.7646   -0.0576    1.2115 Si      1  UNL1        0.0000
      4 SI         -3.1127   -0.6353    1.3693 Si      1  UNL1        0.0000
      5 SI         -3.1246   -2.7833    2.4212 Si      1  UNL1        0.0000
      6 SI          1.6817   -3.0067    5.9764 Si      1  UNL1        0.0000
      7 SI          3.1646   -1.6803    4.6428 Si      1  UNL1        0.0000
      8 SI         -1.9448   -2.6295    4.5035 Si      1  UNL1        0.0000
      9 SI         -0.0619   -4.1073    4.7307 Si      1  UNL1        0.0000
     10 F          -0.3009    0.0743   -0.3305 F       1  UNL1        0.0000
     11 F          -0.4580    1.3667    1.9074 F       1  UNL1        0.0000
     12 F          -3.8318   -0.6817   -0.0846 F       1  UNL1        0.0000
     13 F          -3.9346    0.4405    2.2632 F       1  UNL1        0.0000
     14 F          -4.6473   -3.2799    2.6733 F       1  UNL1        0.0000
     15 F          -2.4525   -3.8988    1.4578 F       1  UNL1        0.0000
     16 F          -2.9688   -2.8488    5.7398 F       1  UNL1        0.0000
     17 F          -1.4287   -1.1027    4.6752 F       1  UNL1        0.0000
     18 F          -0.5275   -5.4545    5.5024 F       1  UNL1        0.0000
     19 F           0.4964   -4.6137    3.2979 F       1  UNL1        0.0000
     20 F           2.5347   -4.0998    6.8165 F       1  UNL1        0.0000
     21 F           0.9942   -2.0573    7.0952 F       1  UNL1        0.0000
     22 F           4.1109   -0.7485    5.5752 F       1  UNL1        0.0000
     23 F           4.1589   -2.6269    3.7787 F       1  UNL1        0.0000
     24 F           2.5642    0.5813    2.1867 F       1  UNL1        0.0000
     25 F           0.8136    0.6020    4.1350 F       1  UNL1        0.0000
@<TRIPOS>BOND
     1     1     3    1
     2     1     2    1
     3     2    24    1
     4     2     7    1
     5     2    25    1
     6     3    10    1
     7     3    11    1
     8     3     4    1
     9     4    12    1
    10     4     5    1
    11     4    13    1
    12     5    15    1
    13     5    14    1
    14     5     8    1
    15     6    20    1
    16     6     7    1
    17     6     9    1
    18     6    21    1
    19     7    22    1
    20     7    23    1
    21     8     9    1
    22     8    16    1
    23     8    17    1
    24     9    19    1
    25     9    18    1
@<TRIPOS>MOLECULE
S_SiF2_8_cyclic
 25 25 0 0 0
SMALL
GASTEIGER
****
Schrodinger Suite 2023-1.
@<TRIPOS>ATOM
      1 S           0.4317   -1.6081    2.0832 S.3     1  UNL1        0.0000
      2 SI          0.5579   -2.7694    3.8804 Si      1  UNL1        0.0000
      3 SI         -1.0190   -0.1954    2.7654 Si      1  UNL1        0.0000
      4 SI         -1.7280    1.2328    0.9478 Si      1  UNL1        0.0000
      5 SI         -2.5284   -0.2479   -0.7562 Si      1  UNL1        0.0000
      6 SI          0.3641   -5.1959    0.9590 Si      1  UNL1        0.0000
      7 SI          0.4956   -5.1323    3.3463 Si      1  UNL1        0.0000
      8 SI         -1.0606   -2.0962   -1.2387 Si      1  UNL1        0.0000
      9 SI         -1.5393   -3.9167    0.2571 Si      1  UNL1        0.0000
     10 F          -0.3865    0.6264    4.0041 F       1  UNL1        0.0000
     11 F          -2.2911   -1.0303    3.3047 F       1  UNL1        0.0000
     12 F          -0.5052    2.1407    0.3893 F       1  UNL1        0.0000
     13 F          -2.8900    2.2637    1.4169 F       1  UNL1        0.0000
     14 F          -3.9674   -0.8384   -0.3020 F       1  UNL1        0.0000
     15 F          -2.8247    0.5905   -2.1117 F       1  UNL1        0.0000
     16 F           0.4873   -1.6283   -1.1592 F       1  UNL1        0.0000
     17 F          -1.2747   -2.5883   -2.7681 F       1  UNL1        0.0000
     18 F          -2.2597   -3.3230    1.5820 F       1  UNL1        0.0000
     19 F          -2.6519   -4.8926   -0.4022 F       1  UNL1        0.0000
     20 F           1.7241   -4.6204    0.2928 F       1  UNL1        0.0000
     21 F           0.2345   -6.7269    0.4413 F       1  UNL1        0.0000
     22 F          -0.7945   -5.8612    4.0067 F       1  UNL1        0.0000
     23 F           1.8065   -5.9188    3.8904 F       1  UNL1        0.0000
     24 F           1.9522   -2.3711    4.5927 F       1  UNL1        0.0000
     25 F          -0.6171   -2.3651    4.9113 F       1  UNL1        0.0000
@<TRIPOS>BOND
     1     1     3    1
     2     1     2    1
     3     2    24    1
     4     2     7    1
     5     2    25    1
     6     3    10    1
     7     3    11    1
     8     3     4    1
     9     4    12    1
    10     4     5    1
    11     4    13    1
    12     5    15    1
    13     5    14    1
    14     5     8    1
    15     6    20    1
    16     6     7    1
    17     6     9    1
    18     6    21    1
    19     7    22    1
    20     7    23    1
    21     8     9    1
    22     8    16    1
    23     8    17    1
    24     9    19    1
    25     9    18    1
@<TRIPOS>MOLECULE
S_SiF2_8_cyclic
 25 25 0 0 0
SMALL
GASTEIGER
****
Schrodinger Suite 2023-1.
@<TRIPOS>ATOM
      1 S           0.4315   -1.6081    2.0830 S.3     1  UNL1        0.0000
      2 SI          0.0118   -3.3097    0.8608 Si      1  UNL1        0.0000
      3 SI         -1.0517   -0.2988    1.2582 Si      1  UNL1        0.0000
      4 SI         -2.2387    0.8358    3.0404 Si      1  UNL1        0.0000
      5 SI         -1.2016    0.0394    5.0431 Si      1  UNL1        0.0000
      6 SI          0.7263   -5.5109    3.9153 Si      1  UNL1        0.0000
      7 SI          1.2904   -5.2221    1.6055 Si      1  UNL1        0.0000
      8 SI         -1.3168   -2.3560    5.0718 Si      1  UNL1        0.0000
      9 SI          0.8002   -3.4863    5.2189 Si      1  UNL1        0.0000
     10 F          -2.0640   -1.1087    0.2957 F       1  UNL1        0.0000
     11 F          -0.2680    0.7560    0.3184 F       1  UNL1        0.0000
     12 F          -3.8192    0.4699    3.0340 F       1  UNL1        0.0000
     13 F          -2.1320    2.4502    2.9175 F       1  UNL1        0.0000
     14 F           0.3348    0.5447    5.1350 F       1  UNL1        0.0000
     15 F          -1.9453    0.6535    6.3464 F       1  UNL1        0.0000
     16 F          -2.0682   -2.8375    3.7189 F       1  UNL1        0.0000
     17 F          -2.2892   -2.8511    6.2694 F       1  UNL1        0.0000
     18 F           2.0306   -2.5481    4.7421 F       1  UNL1        0.0000
     19 F           1.1139   -3.8378    6.7698 F       1  UNL1        0.0000
     20 F          -0.7665   -6.1331    4.0151 F       1  UNL1        0.0000
     21 F           1.6952   -6.6296    4.5771 F       1  UNL1        0.0000
     22 F           2.8848   -4.9793    1.4316 F       1  UNL1        0.0000
     23 F           0.9308   -6.5514    0.7473 F       1  UNL1        0.0000
     24 F          -1.5615   -3.6382    1.0125 F       1  UNL1        0.0000
     25 F           0.3040   -2.9159   -0.6784 F       1  UNL1        0.0000
@<TRIPOS>BOND
     1     1     3    1
     2     1     2    1
     3     2    24    1
     4     2     7    1
     5     2    25    1
     6     3    10    1
     7     3    11    1
     8     3     4    1
     9     4    12    1
    10     4     5    1
    11     4    13    1
    12     5    15    1
    13     5    14    1
    14     5     8    1
    15     6    20    1
    16     6     7    1
    17     6     9    1
    18     6    21    1
    19     7    22    1
    20     7    23    1
    21     8     9    1
    22     8    16    1
    23     8    17    1
    24     9    19    1
    25     9    18    1
@<TRIPOS>MOLECULE
S_SiF2_8_cyclic
 25 25 0 0 0
SMALL
GASTEIGER
****
Schrodinger Suite 2023-1.
@<TRIPOS>ATOM
      1 S           0.4316   -1.6081    2.0832 S.3     1  UNL1        0.0000
      2 SI          2.1762   -1.5334    3.3263 Si      1  UNL1        0.0000
      3 SI          0.2042   -3.7324    2.0492 Si      1  UNL1        0.0000
      4 SI         -1.8607   -4.3452    0.9502 Si      1  UNL1        0.0000
      5 SI         -3.5895   -3.1930    2.1421 Si      1  UNL1        0.0000
      6 SI         -0.2396    1.1214    4.5824 Si      1  UNL1        0.0000
      7 SI          1.9051    0.1641    5.0343 Si      1  UNL1        0.0000
      8 SI         -3.1364   -0.8618    2.5466 Si      1  UNL1        0.0000
      9 SI         -1.8802   -0.6279    4.5831 Si      1  UNL1        0.0000
     10 F           0.1544   -4.2381    3.5815 F       1  UNL1        0.0000
     11 F           1.5086   -4.3728    1.3435 F       1  UNL1        0.0000
     12 F          -2.1007   -5.9497    0.9827 F       1  UNL1        0.0000
     13 F          -1.8568   -3.9120   -0.6130 F       1  UNL1        0.0000
     14 F          -4.9960   -3.3533    1.3520 F       1  UNL1        0.0000
     15 F          -3.8202   -3.9274    3.5680 F       1  UNL1        0.0000
     16 F          -4.5285   -0.0420    2.6779 F       1  UNL1        0.0000
     17 F          -2.3766   -0.2021    1.2782 F       1  UNL1        0.0000
     18 F          -2.8915   -0.4405    5.8350 F       1  UNL1        0.0000
     19 F          -1.1202   -2.0269    4.8864 F       1  UNL1        0.0000
     20 F          -0.6067    2.2368    5.7004 F       1  UNL1        0.0000
     21 F          -0.2321    1.9057    3.1650 F       1  UNL1        0.0000
     22 F           3.0790    1.2830    4.9786 F       1  UNL1        0.0000
     23 F           1.9397   -0.4760    6.5246 F       1  UNL1        0.0000
     24 F           2.4848   -2.9800    3.9738 F       1  UNL1        0.0000
     25 F           3.4216   -1.1883    2.3567 F       1  UNL1        0.0000
@<TRIPOS>BOND
     1     1     3    1
     2     1     2    1
     3     2    24    1
     4     2     7    1
     5     2    25    1
     6     3    10    1
     7     3    11    1
     8     3     4    1
     9     4    12    1
    10     4     5    1
    11     4    13    1
    12     5    15    1
    13     5    14    1
    14     5     8    1
    15     6    20    1
    16     6     7    1
    17     6     9    1
    18     6    21    1
    19     7    22    1
    20     7    23    1
    21     8     9    1
    22     8    16    1
    23     8    17    1
    24     9    19    1
    25     9    18    1
@<TRIPOS>MOLECULE
S_SiF2_8_cyclic
 25 25 0 0 0
SMALL
GASTEIGER
****
Schrodinger Suite 2023-1.
@<TRIPOS>ATOM
      1 S           0.4316   -1.6080    2.0833 S.3     1  UNL1        0.0000
      2 SI          2.4780   -2.2046    1.9358 Si      1  UNL1        0.0000
      3 SI          0.7319    0.4948    1.7957 Si      1  UNL1        0.0000
      4 SI         -0.8935    1.3560    0.2181 Si      1  UNL1        0.0000
      5 SI         -2.2352   -0.5423   -0.3447 Si      1  UNL1        0.0000
      6 SI          1.2864   -5.3573    0.1114 Si      1  UNL1        0.0000
      7 SI          2.6579   -4.6159    1.9297 Si      1  UNL1        0.0000
      8 SI         -0.8039   -2.2820   -1.1675 Si      1  UNL1        0.0000
      9 SI         -0.9039   -4.3565    0.0439 Si      1  UNL1        0.0000
     10 F           2.2425    0.8006    1.3146 F       1  UNL1        0.0000
     11 F           0.5607    1.1899    3.2441 F       1  UNL1        0.0000
     12 F          -0.1789    1.9606   -1.1069 F       1  UNL1        0.0000
     13 F          -1.7902    2.5505    0.8521 F       1  UNL1        0.0000
     14 F          -3.0811   -1.0498    0.9402 F       1  UNL1        0.0000
     15 F          -3.3361   -0.1429   -1.4661 F       1  UNL1        0.0000
     16 F           0.7212   -1.7346   -1.1319 F       1  UNL1        0.0000
     17 F          -1.0988   -2.5475   -2.7384 F       1  UNL1        0.0000
     18 F          -1.4874   -4.1645    1.5419 F       1  UNL1        0.0000
     19 F          -1.9470   -5.3566   -0.6903 F       1  UNL1        0.0000
     20 F           2.0449   -5.0304   -1.2827 F       1  UNL1        0.0000
     21 F           1.1545   -6.9726    0.1517 F       1  UNL1        0.0000
     22 F           2.1477   -5.2567    3.3298 F       1  UNL1        0.0000
     23 F           4.1946   -5.0993    1.7351 F       1  UNL1        0.0000
     24 F           3.0495   -1.6313    0.5390 F       1  UNL1        0.0000
     25 F           3.2982   -1.5137    3.1439 F       1  UNL1        0.0000
@<TRIPOS>BOND
     1     1     3    1
     2     1     2    1
     3     2    24    1
     4     2     7    1
     5     2    25    1
     6     3    10    1
     7     3    11    1
     8     3     4    1
     9     4    12    1
    10     4     5    1
    11     4    13    1
    12     5    15    1
    13     5    14    1
    14     5     8    1
    15     6    20    1
    16     6     7    1
    17     6     9    1
    18     6    21    1
    19     7    22    1
    20     7    23    1
    21     8     9    1
    22     8    16    1
    23     8    17    1
    24     9    19    1
    25     9    18    1
@<TRIPOS>MOLECULE
S_SiF2_8_cyclic
 25 25 0 0 0
SMALL
GASTEIGER
****
Schrodinger Suite 2023-1.
@<TRIPOS>ATOM
      1 S           0.4315   -1.6081    2.0832 S.3     1  UNL1        0.0000
      2 SI          0.1356   -0.9525    0.0712 Si      1  UNL1        0.0000
      3 SI         -1.5435   -2.3685    2.4230 Si      1  UNL1        0.0000
      4 SI         -1.4227   -4.5395    3.4929 Si      1  UNL1        0.0000
      5 SI          0.9197   -4.9275    3.7817 Si      1  UNL1        0.0000
      6 SI          3.7157   -2.0926   -0.6835 Si      1  UNL1        0.0000
      7 SI          2.2286   -0.2274   -0.8985 Si      1  UNL1        0.0000
      8 SI          1.9993   -4.7546    1.6470 Si      1  UNL1        0.0000
      9 SI          3.7384   -3.1006    1.5044 Si      1  UNL1        0.0000
     10 F          -2.3807   -2.4347    1.0440 F       1  UNL1        0.0000
     11 F          -2.2970   -1.2962    3.3678 F       1  UNL1        0.0000
     12 F          -2.0817   -5.6991    2.5692 F       1  UNL1        0.0000
     13 F          -2.2092   -4.5686    4.9119 F       1  UNL1        0.0000
     14 F           1.5515   -3.8717    4.8354 F       1  UNL1        0.0000
     15 F           1.1740   -6.3946    4.4231 F       1  UNL1        0.0000
     16 F           0.8668   -4.4121    0.5393 F       1  UNL1        0.0000
     17 F           2.5765   -6.2003    1.1977 F       1  UNL1        0.0000
     18 F           3.6031   -1.9679    2.6533 F       1  UNL1        0.0000
     19 F           5.1727   -3.8059    1.7739 F       1  UNL1        0.0000
     20 F           3.2968   -3.2228   -1.7666 F       1  UNL1        0.0000
     21 F           5.2166   -1.6438   -1.1005 F       1  UNL1        0.0000
     22 F           2.8246    1.0714   -0.1307 F       1  UNL1        0.0000
     23 F           2.0497    0.1990   -2.4538 F       1  UNL1        0.0000
     24 F          -0.4255   -2.2108   -0.7701 F       1  UNL1        0.0000
     25 F          -0.9931    0.2033    0.0730 F       1  UNL1        0.0000
@<TRIPOS>BOND
     1     1     3    1
     2     1     2    1
     3     2    24    1
     4     2     7    1
     5     2    25    1
     6     3    10    1
     7     3    11    1
     8     3     4    1
     9     4    12    1
    10     4     5    1
    11     4    13    1
    12     5    15    1
    13     5    14    1
    14     5     8    1
    15     6    20    1
    16     6     7    1
    17     6     9    1
    18     6    21    1
    19     7    22    1
    20     7    23    1
    21     8     9    1
    22     8    16    1
    23     8    17    1
    24     9    19    1
    25     9    18    1
@<TRIPOS>MOLECULE
S_SiF2_8_cyclic
 25 25 0 0 0
SMALL
GASTEIGER
****
Schrodinger Suite 2023-1.
@<TRIPOS>ATOM
      1 S           0.4315   -1.6080    2.0832 S.3     1  UNL1        0.0000
      2 SI          2.3729   -0.7589    1.8089 Si      1  UNL1        0.0000
      3 SI          0.0607   -0.8300    4.0458 Si      1  UNL1        0.0000
      4 SI         -2.1792    0.0872    4.1648 Si      1  UNL1        0.0000
      5 SI         -3.0990   -0.3135    1.9937 Si      1  UNL1        0.0000
      6 SI          1.4640   -0.2089   -1.8741 Si      1  UNL1        0.0000
      7 SI          3.1508   -1.1372   -0.4492 Si      1  UNL1        0.0000
      8 SI         -1.6559    0.6716    0.3509 Si      1  UNL1        0.0000
      9 SI         -0.7868   -0.8462   -1.2987 Si      1  UNL1        0.0000
     10 F           1.1721    0.2696    4.4492 F       1  UNL1        0.0000
     11 F           0.2389   -2.0630    5.0745 F       1  UNL1        0.0000
     12 F          -2.1584    1.6766    4.4892 F       1  UNL1        0.0000
     13 F          -3.0687   -0.6154    5.3258 F       1  UNL1        0.0000
     14 F          -3.2763   -1.9018    1.7285 F       1  UNL1        0.0000
     15 F          -4.5879    0.3193    1.8858 F       1  UNL1        0.0000
     16 F          -0.4111    1.3612    1.1269 F       1  UNL1        0.0000
     17 F          -2.4077    1.9068   -0.3799 F       1  UNL1        0.0000
     18 F          -0.8315   -2.3857   -0.7995 F       1  UNL1        0.0000
     19 F          -1.7287   -0.8024   -2.6170 F       1  UNL1        0.0000
     20 F           1.5697    1.4073   -1.8251 F       1  UNL1        0.0000
     21 F           1.7736   -0.6058   -3.4151 F       1  UNL1        0.0000
     22 F           3.3520   -2.7176   -0.7549 F       1  UNL1        0.0000
     23 F           4.5880   -0.4311   -0.7115 F       1  UNL1        0.0000
     24 F           2.2459    0.8304    2.0618 F       1  UNL1        0.0000
     25 F           3.3612   -1.3756    2.9281 F       1  UNL1        0.0000
@<TRIPOS>BOND
     1     1     3    1
     2     1     2    1
     3     2    24    1
     4     2     7    1
     5     2    25    1
     6     3    10    1
     7     3    11    1
     8     3     4    1
     9     4    12    1
    10     4     5    1
    11     4    13    1
    12     5    15    1
    13     5    14    1
    14     5     8    1
    15     6    20    1
    16     6     7    1
    17     6     9    1
    18     6    21    1
    19     7    22    1
    20     7    23    1
    21     8     9    1
    22     8    16    1
    23     8    17    1
    24     9    19    1
    25     9    18    1
@<TRIPOS>MOLECULE
S_SiF2_8_cyclic
 25 25 0 0 0
SMALL
GASTEIGER
****
Schrodinger Suite 2023-1.
@<TRIPOS>ATOM
      1 S           0.4317   -1.6080    2.0831 S.3     1  UNL1        0.0000
      2 SI          0.2631   -3.4949    3.0713 Si      1  UNL1        0.0000
      3 SI         -0.1501   -0.3735    3.7361 Si      1  UNL1        0.0000
      4 SI         -1.7429    1.2985    3.0015 Si      1  UNL1        0.0000
      5 SI         -1.9794    0.9001    0.6550 Si      1  UNL1        0.0000
      6 SI         -1.0622   -4.9472   -0.2179 Si      1  UNL1        0.0000
      7 SI          0.5710   -5.3045    1.4973 Si      1  UNL1        0.0000
      8 SI         -2.6340   -1.3830    0.3224 Si      1  UNL1        0.0000
      9 SI         -1.1533   -2.6884   -1.0505 Si      1  UNL1        0.0000
     10 F           1.1989    0.3160    4.2972 F       1  UNL1        0.0000
     11 F          -0.7453   -1.2677    4.9415 F       1  UNL1        0.0000
     12 F          -1.2282    2.8083    3.2989 F       1  UNL1        0.0000
     13 F          -3.1714    1.1351    3.7530 F       1  UNL1        0.0000
     14 F          -3.0870    1.9004    0.0214 F       1  UNL1        0.0000
     15 F          -0.5972    1.2241   -0.1252 F       1  UNL1        0.0000
     16 F          -4.1387   -1.4481   -0.2749 F       1  UNL1        0.0000
     17 F          -2.7481   -2.0884    1.7771 F       1  UNL1        0.0000
     18 F          -1.6944   -2.6830   -2.5783 F       1  UNL1        0.0000
     19 F           0.3329   -2.0508   -1.1274 F       1  UNL1        0.0000
     20 F          -0.8009   -5.9771   -1.4423 F       1  UNL1        0.0000
     21 F          -2.5233   -5.3417    0.3611 F       1  UNL1        0.0000
     22 F           0.3674   -6.7511    2.2035 F       1  UNL1        0.0000
     23 F           2.0676   -5.3041    0.8716 F       1  UNL1        0.0000
     24 F           1.3252   -3.5293    4.2881 F       1  UNL1        0.0000
     25 F          -1.2247   -3.5852    3.6912 F       1  UNL1        0.0000
@<TRIPOS>BOND
     1     1     3    1
     2     1     2    1
     3     2    24    1
     4     2     7    1
     5     2    25    1
     6     3    10    1
     7     3    11    1
     8     3     4    1
     9     4    12    1
    10     4     5    1
    11     4    13    1
    12     5    15    1
    13     5    14    1
    14     5     8    1
    15     6    20    1
    16     6     7    1
    17     6     9    1
    18     6    21    1
    19     7    22    1
    20     7    23    1
    21     8     9    1
    22     8    16    1
    23     8    17    1
    24     9    19    1
    25     9    18    1
@<TRIPOS>MOLECULE
S_SiF2_8_cyclic
 25 25 0 0 0
SMALL
GASTEIGER
****
Schrodinger Suite 2023-1.
@<TRIPOS>ATOM
      1 S           0.4315   -1.6080    2.0832 S.3     1  UNL1        0.0000
      2 SI          2.3196   -1.0570    2.9351 Si      1  UNL1        0.0000
      3 SI         -0.7424   -1.4140    3.8579 Si      1  UNL1        0.0000
      4 SI         -2.9928   -2.2119    3.4753 Si      1  UNL1        0.0000
      5 SI         -2.7516   -4.4656    2.7010 Si      1  UNL1        0.0000
      6 SI          2.8956   -4.1200    0.7560 Si      1  UNL1        0.0000
      7 SI          4.0395   -2.6010    2.2068 Si      1  UNL1        0.0000
      8 SI         -1.1078   -4.7506    0.9632 Si      1  UNL1        0.0000
      9 SI          1.0575   -5.0923    1.9509 Si      1  UNL1        0.0000
     10 F          -0.6925    0.1284    4.3356 F       1  UNL1        0.0000
     11 F          -0.0495   -2.3229    4.9981 F       1  UNL1        0.0000
     12 F          -3.7679   -1.3079    2.3737 F       1  UNL1        0.0000
     13 F          -3.8851   -2.1534    4.8292 F       1  UNL1        0.0000
     14 F          -2.3443   -5.4083    3.9544 F       1  UNL1        0.0000
     15 F          -4.1879   -5.0263    2.2000 F       1  UNL1        0.0000
     16 F          -1.1272   -3.4878   -0.0499 F       1  UNL1        0.0000
     17 F          -1.4876   -6.0326    0.0469 F       1  UNL1        0.0000
     18 F           1.0480   -4.4705    3.4477 F       1  UNL1        0.0000
     19 F           1.3161   -6.6759    2.1754 F       1  UNL1        0.0000
     20 F           2.3797   -3.3614   -0.5792 F       1  UNL1        0.0000
     21 F           3.9066   -5.2782    0.2409 F       1  UNL1        0.0000
     22 F           4.6982   -3.3964    3.4580 F       1  UNL1        0.0000
     23 F           5.2548   -1.8479    1.4395 F       1  UNL1        0.0000
     24 F           2.6354    0.4449    2.4302 F       1  UNL1        0.0000
     25 F           2.2278   -0.9910    4.5457 F       1  UNL1        0.0000
@<TRIPOS>BOND
     1     1     3    1
     2     1     2    1
     3     2    24    1
     4     2     7    1
     5     2    25    1
     6     3    10    1
     7     3    11    1
     8     3     4    1
     9     4    12    1
    10     4     5    1
    11     4    13    1
    12     5    15    1
    13     5    14    1
    14     5     8    1
    15     6    20    1
    16     6     7    1
    17     6     9    1
    18     6    21    1
    19     7    22    1
    20     7    23    1
    21     8     9    1
    22     8    16    1
    23     8    17    1
    24     9    19    1
    25     9    18    1
@<TRIPOS>MOLECULE
S_SiF2_8_cyclic
 25 25 0 0 0
SMALL
GASTEIGER
****
Schrodinger Suite 2023-1.
@<TRIPOS>ATOM
      1 S           0.4315   -1.6081    2.0833 S.3     1  UNL1        0.0000
      2 SI          0.7955    0.4923    1.8591 Si      1  UNL1        0.0000
      3 SI         -0.4058   -1.5379    4.0479 Si      1  UNL1        0.0000
      4 SI         -0.7545   -3.7739    4.8995 Si      1  UNL1        0.0000
      5 SI          1.3839   -4.8465    4.7827 Si      1  UNL1        0.0000
      6 SI          3.8897   -1.3447    0.6291 Si      1  UNL1        0.0000
      7 SI          3.0143    0.8570    0.9556 Si      1  UNL1        0.0000
      8 SI          2.5228   -4.5702    2.6779 Si      1  UNL1        0.0000
      9 SI          3.7941   -2.5297    2.7121 Si      1  UNL1        0.0000
     10 F          -1.7641   -0.6651    3.9917 F       1  UNL1        0.0000
     11 F           0.6520   -0.7728    4.9975 F       1  UNL1        0.0000
     12 F          -1.8502   -4.5842    4.0194 F       1  UNL1        0.0000
     13 F          -1.3129   -3.7521    6.4229 F       1  UNL1        0.0000
     14 F           2.3289   -4.2583    5.9603 F       1  UNL1        0.0000
     15 F           1.2215   -6.4238    5.1199 F       1  UNL1        0.0000
     16 F           1.4677   -4.6147    1.4506 F       1  UNL1        0.0000
     17 F           3.5219   -5.8204    2.4209 F       1  UNL1        0.0000
     18 F           3.1531   -1.5388    3.8230 F       1  UNL1        0.0000
     19 F           5.2926   -2.8240    3.2530 F       1  UNL1        0.0000
     20 F           3.0596   -2.1289   -0.5199 F       1  UNL1        0.0000
     21 F           5.4185   -1.2708    0.0942 F       1  UNL1        0.0000
     22 F           3.9490    1.6940    1.9840 F       1  UNL1        0.0000
     23 F           2.9806    1.6950   -0.4335 F       1  UNL1        0.0000
     24 F          -0.3397    1.0551    0.8569 F       1  UNL1        0.0000
     25 F           0.5943    1.2650    3.2624 F       1  UNL1        0.0000
@<TRIPOS>BOND
     1     1     3    1
     2     1     2    1
     3     2    24    1
     4     2     7    1
     5     2    25    1
     6     3    10    1
     7     3    11    1
     8     3     4    1
     9     4    12    1
    10     4     5    1
    11     4    13    1
    12     5    15    1
    13     5    14    1
    14     5     8    1
    15     6    20    1
    16     6     7    1
    17     6     9    1
    18     6    21    1
    19     7    22    1
    20     7    23    1
    21     8     9    1
    22     8    16    1
    23     8    17    1
    24     9    19    1
    25     9    18    1
@<TRIPOS>MOLECULE
S_SiF2_8_cyclic
 25 25 0 0 0
SMALL
GASTEIGER
****
Schrodinger Suite 2023-1.
@<TRIPOS>ATOM
      1 S           0.4317   -1.6081    2.0834 S.3     1  UNL1        0.0000
      2 SI          0.1065   -3.5750    1.2960 Si      1  UNL1        0.0000
      3 SI         -1.5049   -1.3277    2.9416 Si      1  UNL1        0.0000
      4 SI         -1.7481    0.9349    3.7589 Si      1  UNL1        0.0000
      5 SI         -1.2947    2.3480    1.8790 Si      1  UNL1        0.0000
      6 SI          1.8637   -1.5395   -1.3932 Si      1  UNL1        0.0000
      7 SI          0.9476   -3.7085   -0.9727 Si      1  UNL1        0.0000
      8 SI          0.6950    1.7649    0.6521 Si      1  UNL1        0.0000
      9 SI          0.1625    0.1058   -1.0047 Si      1  UNL1        0.0000
     10 F          -1.7179   -2.4409    4.0927 F       1  UNL1        0.0000
     11 F          -2.5922   -1.5853    1.7765 F       1  UNL1        0.0000
     12 F          -0.7163    1.2464    4.9713 F       1  UNL1        0.0000
     13 F          -3.2384    1.2018    4.3426 F       1  UNL1        0.0000
     14 F          -2.5585    2.2924    0.8664 F       1  UNL1        0.0000
     15 F          -1.2109    3.8921    2.3655 F       1  UNL1        0.0000
     16 F           1.8607    1.2713    1.6615 F       1  UNL1        0.0000
     17 F           1.2990    3.0790   -0.0796 F       1  UNL1        0.0000
     18 F          -1.1871   -0.6672   -0.5488 F       1  UNL1        0.0000
     19 F          -0.2396    0.8288   -2.3978 F       1  UNL1        0.0000
     20 F           3.1545   -1.2685   -0.4526 F       1  UNL1        0.0000
     21 F           2.4031   -1.4407   -2.9191 F       1  UNL1        0.0000
     22 F          -0.2362   -4.0409   -2.0310 F       1  UNL1        0.0000
     23 F           2.0677   -4.8699   -1.1441 F       1  UNL1        0.0000
     24 F           0.8915   -4.5992    2.2681 F       1  UNL1        0.0000
     25 F          -1.4559   -3.9748    1.3719 F       1  UNL1        0.0000
@<TRIPOS>BOND
     1     1     3    1
     2     1     2    1
     3     2    24    1
     4     2     7    1
     5     2    25    1
     6     3    10    1
     7     3    11    1
     8     3     4    1
     9     4    12    1
    10     4     5    1
    11     4    13    1
    12     5    15    1
    13     5    14    1
    14     5     8    1
    15     6    20    1
    16     6     7    1
    17     6     9    1
    18     6    21    1
    19     7    22    1
    20     7    23    1
    21     8     9    1
    22     8    16    1
    23     8    17    1
    24     9    19    1
    25     9    18    1
@<TRIPOS>MOLECULE
S_SiF2_8_cyclic
 25 25 0 0 0
SMALL
GASTEIGER
****
Schrodinger Suite 2023-1.
@<TRIPOS>ATOM
      1 S           0.4316   -1.6081    2.0830 S.3     1  UNL1        0.0000
      2 SI          2.5076   -1.3189    1.6345 Si      1  UNL1        0.0000
      3 SI         -0.3142   -1.4106    0.0904 Si      1  UNL1        0.0000
      4 SI         -2.6729   -1.9378    0.0131 Si      1  UNL1        0.0000
      5 SI         -2.8684   -4.1463    0.9194 Si      1  UNL1        0.0000
      6 SI          2.2505   -4.2751    4.0125 Si      1  UNL1        0.0000
      7 SI          3.8426   -2.9892    2.7748 Si      1  UNL1        0.0000
      8 SI         -1.6690   -4.4863    2.9807 Si      1  UNL1        0.0000
      9 SI          0.5980   -5.1232    2.4954 Si      1  UNL1        0.0000
     10 F           0.4903   -2.4619   -0.8336 F       1  UNL1        0.0000
     11 F           0.0158    0.0824   -0.4309 F       1  UNL1        0.0000
     12 F          -3.2484   -1.8772   -1.5028 F       1  UNL1        0.0000
     13 F          -3.5493   -0.8836    0.8803 F       1  UNL1        0.0000
     14 F          -4.4338   -4.5148    1.1240 F       1  UNL1        0.0000
     15 F          -2.3237   -5.2104   -0.1745 F       1  UNL1        0.0000
     16 F          -2.3806   -5.6553    3.8490 F       1  UNL1        0.0000
     17 F          -1.7489   -3.1628    3.9098 F       1  UNL1        0.0000
     18 F           0.7076   -6.7368    2.3999 F       1  UNL1        0.0000
     19 F           0.9732   -4.6060    1.0059 F       1  UNL1        0.0000
     20 F           2.9875   -5.4974    4.7816 F       1  UNL1        0.0000
     21 F           1.5630   -3.3769    5.1722 F       1  UNL1        0.0000
     22 F           4.9558   -2.3236    3.7498 F       1  UNL1        0.0000
     23 F           4.6437   -3.9327    1.7261 F       1  UNL1        0.0000
     24 F           2.7619   -1.3459    0.0403 F       1  UNL1        0.0000
     25 F           2.8869    0.1693    2.1359 F       1  UNL1        0.0000
@<TRIPOS>BOND
     1     1     3    1
     2     1     2    1
     3     2    24    1
     4     2     7    1
     5     2    25    1
     6     3    10    1
     7     3    11    1
     8     3     4    1
     9     4    12    1
    10     4     5    1
    11     4    13    1
    12     5    15    1
    13     5    14    1
    14     5     8    1
    15     6    20    1
    16     6     7    1
    17     6     9    1
    18     6    21    1
    19     7    22    1
    20     7    23    1
    21     8     9    1
    22     8    16    1
    23     8    17    1
    24     9    19    1
    25     9    18    1
@<TRIPOS>MOLECULE
S_SiF2_8_cyclic
 25 25 0 0 0
SMALL
GASTEIGER
****
Schrodinger Suite 2023-1.
@<TRIPOS>ATOM
      1 S           0.4318   -1.6080    2.0832 S.3     1  UNL1        0.0000
      2 SI         -1.5336   -1.0664    2.7231 Si      1  UNL1        0.0000
      3 SI          0.7342    0.0094    0.7095 Si      1  UNL1        0.0000
      4 SI          1.6677   -0.8284   -1.3640 Si      1  UNL1        0.0000
      5 SI          1.9160   -3.1785   -0.9950 Si      1  UNL1        0.0000
      6 SI         -2.3775   -4.8029    2.8422 Si      1  UNL1        0.0000
      7 SI         -2.4675   -2.7905    4.1380 Si      1  UNL1        0.0000
      8 SI         -0.2099   -4.0901   -0.3610 Si      1  UNL1        0.0000
      9 SI         -0.2576   -5.2029    1.7698 Si      1  UNL1        0.0000
     10 F           1.7470    1.0438    1.4267 F       1  UNL1        0.0000
     11 F          -0.6420    0.8145    0.4554 F       1  UNL1        0.0000
     12 F           3.0876   -0.1302   -1.7234 F       1  UNL1        0.0000
     13 F           0.6792   -0.5510   -2.6202 F       1  UNL1        0.0000
     14 F           2.4615   -3.9060   -2.3374 F       1  UNL1        0.0000
     15 F           3.0306   -3.4668    0.1446 F       1  UNL1        0.0000
     16 F          -0.7527   -5.0887   -1.5156 F       1  UNL1        0.0000
     17 F          -1.2873   -2.8795   -0.3375 F       1  UNL1        0.0000
     18 F          -0.0407   -6.7940    1.5488 F       1  UNL1        0.0000
     19 F           0.9612   -4.7409    2.7303 F       1  UNL1        0.0000
     20 F          -2.7726   -6.0692    3.7741 F       1  UNL1        0.0000
     21 F          -3.5275   -4.7426    1.7023 F       1  UNL1        0.0000
     22 F          -3.9922   -2.4450    4.5725 F       1  UNL1        0.0000
     23 F          -1.6234   -2.9569    5.5133 F       1  UNL1        0.0000
     24 F          -1.4534    0.3732    3.4516 F       1  UNL1        0.0000
     25 F          -2.4490   -0.9182    1.4017 F       1  UNL1        0.0000
@<TRIPOS>BOND
     1     1     3    1
     2     1     2    1
     3     2    24    1
     4     2     7    1
     5     2    25    1
     6     3    10    1
     7     3    11    1
     8     3     4    1
     9     4    12    1
    10     4     5    1
    11     4    13    1
    12     5    15    1
    13     5    14    1
    14     5     8    1
    15     6    20    1
    16     6     7    1
    17     6     9    1
    18     6    21    1
    19     7    22    1
    20     7    23    1
    21     8     9    1
    22     8    16    1
    23     8    17    1
    24     9    19    1
    25     9    18    1
@<TRIPOS>MOLECULE
S_SiF2_8_cyclic
 25 25 0 0 0
SMALL
GASTEIGER
****
Schrodinger Suite 2023-1.
@<TRIPOS>ATOM
      1 S           0.4314   -1.6081    2.0834 S.3     1  UNL1        0.0000
      2 SI         -0.3792   -1.5531    0.1072 Si      1  UNL1        0.0000
      3 SI          1.0353    0.4455    2.1954 Si      1  UNL1        0.0000
      4 SI          3.2731    0.6023    3.1120 Si      1  UNL1        0.0000
      5 SI          3.8857   -1.6640    3.5695 Si      1  UNL1        0.0000
      6 SI          1.0194   -5.0822   -0.4176 Si      1  UNL1        0.0000
      7 SI         -0.9795   -3.7788   -0.6226 Si      1  UNL1        0.0000
      8 SI          3.6678   -2.9452    1.5537 Si      1  UNL1        0.0000
      9 SI          2.1680   -4.8200    1.6838 Si      1  UNL1        0.0000
     10 F          -0.0359    1.1927    3.1464 F       1  UNL1        0.0000
     11 F           0.9384    1.1542    0.7479 F       1  UNL1        0.0000
     12 F           3.3237    1.5136    4.4535 F       1  UNL1        0.0000
     13 F           4.3074    1.2689    2.0547 F       1  UNL1        0.0000
     14 F           5.4092   -1.7368    4.1196 F       1  UNL1        0.0000
     15 F           2.9629   -2.2820    4.7488 F       1  UNL1        0.0000
     16 F           5.1258   -3.4409    1.0501 F       1  UNL1        0.0000
     17 F           3.1542   -1.9510    0.3813 F       1  UNL1        0.0000
     18 F           3.0135   -6.1606    2.0234 F       1  UNL1        0.0000
     19 F           1.1062   -4.6728    2.8971 F       1  UNL1        0.0000
     20 F           0.6778   -6.6469   -0.6687 F       1  UNL1        0.0000
     21 F           2.0343   -4.6745   -1.6132 F       1  UNL1        0.0000
     22 F          -1.5213   -3.7795   -2.1522 F       1  UNL1        0.0000
     23 F          -2.1676   -4.4057    0.2868 F       1  UNL1        0.0000
     24 F          -1.6272   -0.5274    0.0970 F       1  UNL1        0.0000
     25 F           0.7666   -0.9710   -0.8698 F       1  UNL1        0.0000
@<TRIPOS>BOND
     1     1     3    1
     2     1     2    1
     3     2    24    1
     4     2     7    1
     5     2    25    1
     6     3    10    1
     7     3    11    1
     8     3     4    1
     9     4    12    1
    10     4     5    1
    11     4    13    1
    12     5    15    1
    13     5    14    1
    14     5     8    1
    15     6    20    1
    16     6     7    1
    17     6     9    1
    18     6    21    1
    19     7    22    1
    20     7    23    1
    21     8     9    1
    22     8    16    1
    23     8    17    1
    24     9    19    1
    25     9    18    1
@<TRIPOS>MOLECULE
S_SiF2_8_cyclic
 25 25 0 0 0
SMALL
GASTEIGER
****
Schrodinger Suite 2023-1.
@<TRIPOS>ATOM
      1 S           0.4318   -1.6079    2.0831 S.3     1  UNL1        0.0000
      2 SI         -1.6335   -2.1310    1.8474 Si      1  UNL1        0.0000
      3 SI          0.2562   -0.6218    3.9704 Si      1  UNL1        0.0000
      4 SI          2.4419   -0.0542    4.8347 Si      1  UNL1        0.0000
      5 SI          3.6534   -2.1187    4.9175 Si      1  UNL1        0.0000
      6 SI          0.4366   -5.1792    0.9071 Si      1  UNL1        0.0000
      7 SI         -1.8263   -4.4325    1.1138 Si      1  UNL1        0.0000
      8 SI          3.5088   -3.4386    2.9073 Si      1  UNL1        0.0000
      9 SI          1.5563   -4.8388    3.0006 Si      1  UNL1        0.0000
     10 F          -0.4603   -1.6495    4.9886 F       1  UNL1        0.0000
     11 F          -0.7031    0.6648    3.7856 F       1  UNL1        0.0000
     12 F           2.3447    0.6240    6.3056 F       1  UNL1        0.0000
     13 F           3.2013    1.0176    3.8828 F       1  UNL1        0.0000
     14 F           5.2071   -1.8249    5.2749 F       1  UNL1        0.0000
     15 F           3.0953   -3.0030    6.1553 F       1  UNL1        0.0000
     16 F           4.8287   -4.3678    2.7595 F       1  UNL1        0.0000
     17 F           3.5167   -2.4842    1.5996 F       1  UNL1        0.0000
     18 F           1.9344   -6.2665    3.6670 F       1  UNL1        0.0000
     19 F           0.4957   -4.1810    4.0346 F       1  UNL1        0.0000
     20 F           0.4782   -6.7470    0.4958 F       1  UNL1        0.0000
     21 F           1.1949   -4.3913   -0.2881 F       1  UNL1        0.0000
     22 F          -2.6258   -4.5630   -0.2922 F       1  UNL1        0.0000
     23 F          -2.6284   -5.3394    2.1936 F       1  UNL1        0.0000
     24 F          -2.4520   -1.8761    3.2156 F       1  UNL1        0.0000
     25 F          -2.2461   -1.1173    0.7486 F       1  UNL1        0.0000
@<TRIPOS>BOND
     1     1     3    1
     2     1     2    1
     3     2    24    1
     4     2     7    1
     5     2    25    1
     6     3    10    1
     7     3    11    1
     8     3     4    1
     9     4    12    1
    10     4     5    1
    11     4    13    1
    12     5    15    1
    13     5    14    1
    14     5     8    1
    15     6    20    1
    16     6     7    1
    17     6     9    1
    18     6    21    1
    19     7    22    1
    20     7    23    1
    21     8     9    1
    22     8    16    1
    23     8    17    1
    24     9    19    1
    25     9    18    1
@<TRIPOS>MOLECULE
S_SiF2_8_cyclic
 25 25 0 0 0
SMALL
GASTEIGER
****
Schrodinger Suite 2023-1.
@<TRIPOS>ATOM
      1 S           0.4316   -1.6081    2.0830 S.3     1  UNL1        0.0000
      2 SI          1.9899   -0.1568    1.9194 Si      1  UNL1        0.0000
      3 SI          0.0386   -1.8611   -0.0017 Si      1  UNL1        0.0000
      4 SI         -1.8969   -3.2950   -0.2232 Si      1  UNL1        0.0000
      5 SI         -2.9563   -3.1132    1.9215 Si      1  UNL1        0.0000
      6 SI         -0.3519    1.6374    4.3516 Si      1  UNL1        0.0000
      7 SI          1.9656    1.2295    3.9013 Si      1  UNL1        0.0000
      8 SI         -2.9425   -0.8163    2.6357 Si      1  UNL1        0.0000
      9 SI         -1.6895   -0.3493    4.6448 Si      1  UNL1        0.0000
     10 F           1.3638   -2.4606   -0.7043 F       1  UNL1        0.0000
     11 F          -0.2692   -0.4127   -0.6445 F       1  UNL1        0.0000
     12 F          -1.4905   -4.8298   -0.5586 F       1  UNL1        0.0000
     13 F          -2.8850   -2.7964   -1.4096 F       1  UNL1        0.0000
     14 F          -4.4790   -3.6642    1.8388 F       1  UNL1        0.0000
     15 F          -2.2144   -4.0547    3.0116 F       1  UNL1        0.0000
     16 F          -4.4638   -0.2832    2.8013 F       1  UNL1        0.0000
     17 F          -2.3369    0.0692    1.4208 F       1  UNL1        0.0000
     18 F          -2.7177   -0.1382    5.8801 F       1  UNL1        0.0000
     19 F          -0.7596   -1.5986    5.0901 F       1  UNL1        0.0000
     20 F          -0.4899    2.5874    5.6580 F       1  UNL1        0.0000
     21 F          -0.9721    2.5085    3.1343 F       1  UNL1        0.0000
     22 F           2.7737    2.6178    3.6718 F       1  UNL1        0.0000
     23 F           2.6684    0.4883    5.1617 F       1  UNL1        0.0000
     24 F           3.3862   -0.9499    1.7431 F       1  UNL1        0.0000
     25 F           1.7716    0.7403    0.5961 F       1  UNL1        0.0000
@<TRIPOS>BOND
     1     1     3    1
     2     1     2    1
     3     2    24    1
     4     2     7    1
     5     2    25    1
     6     3    10    1
     7     3    11    1
     8     3     4    1
     9     4    12    1
    10     4     5    1
    11     4    13    1
    12     5    15    1
    13     5    14    1
    14     5     8    1
    15     6    20    1
    16     6     7    1
    17     6     9    1
    18     6    21    1
    19     7    22    1
    20     7    23    1
    21     8     9    1
    22     8    16    1
    23     8    17    1
    24     9    19    1
    25     9    18    1
@<TRIPOS>MOLECULE
S_SiF2_8_cyclic
 25 25 0 0 0
SMALL
GASTEIGER
****
Schrodinger Suite 2023-1.
@<TRIPOS>ATOM
      1 S           0.4315   -1.6083    2.0834 S.3     1  UNL1        0.0000
      2 SI         -0.2513   -3.3720    1.0896 Si      1  UNL1        0.0000
      3 SI         -1.1365   -1.4515    3.5249 Si      1  UNL1        0.0000
      4 SI         -1.4356    0.8811    4.0905 Si      1  UNL1        0.0000
      5 SI         -1.2550    2.0581    2.0114 Si      1  UNL1        0.0000
      6 SI          2.1574   -1.5872   -1.2014 Si      1  UNL1        0.0000
      7 SI          1.1780   -3.7447   -0.8260 Si      1  UNL1        0.0000
      8 SI          0.8109    1.6934    0.8193 Si      1  UNL1        0.0000
      9 SI          0.4722    0.1141   -0.9739 Si      1  UNL1        0.0000
     10 F          -0.7204   -2.3442    4.8054 F       1  UNL1        0.0000
     11 F          -2.5008   -2.0702    2.9254 F       1  UNL1        0.0000
     12 F          -0.3065    1.3955    5.1356 F       1  UNL1        0.0000
     13 F          -2.8731    1.1477    4.7946 F       1  UNL1        0.0000
     14 F          -2.4908    1.6221    1.0585 F       1  UNL1        0.0000
     15 F          -1.4653    3.6450    2.2685 F       1  UNL1        0.0000
     16 F           1.9779    1.2209    1.8384 F       1  UNL1        0.0000
     17 F           1.3418    3.0961    0.2045 F       1  UNL1        0.0000
     18 F          -0.9494   -0.6328   -0.7552 F       1  UNL1        0.0000
     19 F           0.2980    0.9060   -2.3770 F       1  UNL1        0.0000
     20 F           3.3791   -1.3223   -0.1706 F       1  UNL1        0.0000
     21 F           2.8183   -1.5256   -2.6808 F       1  UNL1        0.0000
     22 F           0.3350   -4.2395   -2.1210 F       1  UNL1        0.0000
     23 F           2.3103   -4.8710   -0.5391 F       1  UNL1        0.0000
     24 F          -0.2378   -4.5937    2.1463 F       1  UNL1        0.0000
     25 F          -1.7727   -3.1314    0.6066 F       1  UNL1        0.0000
@<TRIPOS>BOND
     1     1     3    1
     2     1     2    1
     3     2    24    1
     4     2     7    1
     5     2    25    1
     6     3    10    1
     7     3    11    1
     8     3     4    1
     9     4    12    1
    10     4     5    1
    11     4    13    1
    12     5    15    1
    13     5    14    1
    14     5     8    1
    15     6    20    1
    16     6     7    1
    17     6     9    1
    18     6    21    1
    19     7    22    1
    20     7    23    1
    21     8     9    1
    22     8    16    1
    23     8    17    1
    24     9    19    1
    25     9    18    1
@<TRIPOS>MOLECULE
S_SiF2_8_cyclic
 25 25 0 0 0
SMALL
GASTEIGER
****
Schrodinger Suite 2023-1.
@<TRIPOS>ATOM
      1 S           0.4317   -1.6081    2.0832 S.3     1  UNL1        0.0000
      2 SI          1.2799   -3.4178    2.8359 Si      1  UNL1        0.0000
      3 SI         -0.2577   -0.8060    3.9396 Si      1  UNL1        0.0000
      4 SI         -1.5325    1.1922    3.4568 Si      1  UNL1        0.0000
      5 SI         -2.1221    0.9161    1.1478 Si      1  UNL1        0.0000
      6 SI         -1.0078   -4.8236    0.1135 Si      1  UNL1        0.0000
      7 SI          1.1527   -5.1071    1.1094 Si      1  UNL1        0.0000
      8 SI         -2.8076   -1.3562    0.7565 Si      1  UNL1        0.0000
      9 SI         -1.4314   -2.6193   -0.7717 Si      1  UNL1        0.0000
     10 F           1.0217   -0.5362    4.8881 F       1  UNL1        0.0000
     11 F          -1.2002   -1.9049    4.6538 F       1  UNL1        0.0000
     12 F          -0.6688    2.5454    3.6932 F       1  UNL1        0.0000
     13 F          -2.8548    1.3049    4.3903 F       1  UNL1        0.0000
     14 F          -3.3182    1.9371    0.7527 F       1  UNL1        0.0000
     15 F          -0.8802    1.3118    0.1854 F       1  UNL1        0.0000
     16 F          -4.3498   -1.3870    0.2599 F       1  UNL1        0.0000
     17 F          -2.8321   -2.1125    2.1898 F       1  UNL1        0.0000
     18 F          -2.1890   -2.7403   -2.1996 F       1  UNL1        0.0000
     19 F          -0.0375   -1.8649   -1.1062 F       1  UNL1        0.0000
     20 F          -1.2150   -5.9305   -1.0529 F       1  UNL1        0.0000
     21 F          -2.1395   -5.1670    1.2210 F       1  UNL1        0.0000
     22 F           1.3286   -6.6009    1.7182 F       1  UNL1        0.0000
     23 F           2.3203   -4.9202   -0.0013 F       1  UNL1        0.0000
     24 F           2.8025   -3.1036    3.2750 F       1  UNL1        0.0000
     25 F           0.4830   -3.8934    4.1559 F       1  UNL1        0.0000
@<TRIPOS>BOND
     1     1     3    1
     2     1     2    1
     3     2    24    1
     4     2     7    1
     5     2    25    1
     6     3    10    1
     7     3    11    1
     8     3     4    1
     9     4    12    1
    10     4     5    1
    11     4    13    1
    12     5    15    1
    13     5    14    1
    14     5     8    1
    15     6    20    1
    16     6     7    1
    17     6     9    1
    18     6    21    1
    19     7    22    1
    20     7    23    1
    21     8     9    1
    22     8    16    1
    23     8    17    1
    24     9    19    1
    25     9    18    1
@<TRIPOS>MOLECULE
S_SiF2_8_cyclic
 25 25 0 0 0
SMALL
GASTEIGER
****
Schrodinger Suite 2023-1.
@<TRIPOS>ATOM
      1 S           0.4316   -1.6081    2.0832 S.3     1  UNL1        0.0000
      2 SI          2.4074   -2.2791    2.5387 Si      1  UNL1        0.0000
      3 SI         -0.1274   -0.9706    4.0442 Si      1  UNL1        0.0000
      4 SI         -2.2841    0.1134    3.8855 Si      1  UNL1        0.0000
      5 SI         -2.4295    0.6979    1.5634 Si      1  UNL1        0.0000
      6 SI          3.1528    0.0911   -0.3679 Si      1  UNL1        0.0000
      7 SI          3.7847   -2.0224    0.5670 Si      1  UNL1        0.0000
      8 SI         -0.3184    1.5793    0.8198 Si      1  UNL1        0.0000
      9 SI          0.8071    0.3036   -0.8921 Si      1  UNL1        0.0000
     10 F           0.9798    0.0757    4.5780 F       1  UNL1        0.0000
     11 F          -0.1275   -2.2571    5.0210 F       1  UNL1        0.0000
     12 F          -2.3683    1.4311    4.8284 F       1  UNL1        0.0000
     13 F          -3.4992   -0.8659    4.3302 F       1  UNL1        0.0000
     14 F          -2.8580   -0.5858    0.6724 F       1  UNL1        0.0000
     15 F          -3.6036    1.7931    1.3374 F       1  UNL1        0.0000
     16 F           0.6489    1.6885    2.1156 F       1  UNL1        0.0000
     17 F          -0.5055    3.1120    0.3281 F       1  UNL1        0.0000
     18 F           0.1391   -1.1565   -1.1057 F       1  UNL1        0.0000
     19 F           0.6319    1.0515   -2.3195 F       1  UNL1        0.0000
     20 F           3.5626    1.2631    0.6731 F       1  UNL1        0.0000
     21 F           4.0382    0.3820   -1.6945 F       1  UNL1        0.0000
     22 F           3.5320   -3.2160   -0.5021 F       1  UNL1        0.0000
     23 F           5.3655   -2.0554    0.9316 F       1  UNL1        0.0000
     24 F           3.0103   -1.4252    3.7679 F       1  UNL1        0.0000
     25 F           2.3069   -3.8180    3.0201 F       1  UNL1        0.0000
@<TRIPOS>BOND
     1     1     3    1
     2     1     2    1
     3     2    24    1
     4     2     7    1
     5     2    25    1
     6     3    10    1
     7     3    11    1
     8     3     4    1
     9     4    12    1
    10     4     5    1
    11     4    13    1
    12     5    15    1
    13     5    14    1
    14     5     8    1
    15     6    20    1
    16     6     7    1
    17     6     9    1
    18     6    21    1
    19     7    22    1
    20     7    23    1
    21     8     9    1
    22     8    16    1
    23     8    17    1
    24     9    19    1
    25     9    18    1
@<TRIPOS>MOLECULE
S_SiF2_8_cyclic
 25 25 0 0 0
SMALL
GASTEIGER
****
Schrodinger Suite 2023-1.
@<TRIPOS>ATOM
      1 S           0.4315   -1.6081    2.0832 S.3     1  UNL1        0.0000
      2 SI          1.3704   -1.4649    3.9970 Si      1  UNL1        0.0000
      3 SI          1.7180   -0.2767    1.0185 Si      1  UNL1        0.0000
      4 SI          1.7877   -0.9593   -1.3010 Si      1  UNL1        0.0000
      5 SI          1.9028   -3.3518   -1.2468 Si      1  UNL1        0.0000
      6 SI         -0.7036   -4.6165    3.9362 Si      1  UNL1        0.0000
      7 SI          0.3132   -3.0717    5.4640 Si      1  UNL1        0.0000
      8 SI          0.0950   -4.4243   -0.0620 Si      1  UNL1        0.0000
      9 SI          0.8220   -5.0958    2.1392 Si      1  UNL1        0.0000
     10 F           3.1967   -0.3047    1.6637 F       1  UNL1        0.0000
     11 F           1.1377    1.2200    1.1997 F       1  UNL1        0.0000
     12 F           3.0663   -0.3262   -2.0740 F       1  UNL1        0.0000
     13 F           0.4697   -0.4711   -2.1110 F       1  UNL1        0.0000
     14 F           1.9793   -3.9239   -2.7618 F       1  UNL1        0.0000
     15 F           3.3056   -3.7891   -0.5640 F       1  UNL1        0.0000
     16 F          -0.3982   -5.7309   -0.8848 F       1  UNL1        0.0000
     17 F          -1.2020   -3.4555   -0.0089 F       1  UNL1        0.0000
     18 F           1.1909   -6.6737    2.1376 F       1  UNL1        0.0000
     19 F           2.2237   -4.3561    2.4783 F       1  UNL1        0.0000
     20 F          -1.1030   -5.9840    4.7105 F       1  UNL1        0.0000
     21 F          -2.0967   -4.0233    3.3596 F       1  UNL1        0.0000
     22 F          -0.7885   -2.3845    6.4374 F       1  UNL1        0.0000
     23 F           1.3915   -3.8165    6.4206 F       1  UNL1        0.0000
     24 F           2.9365   -1.8173    3.8268 F       1  UNL1        0.0000
     25 F           1.2431    0.0589    4.5177 F       1  UNL1        0.0000
@<TRIPOS>BOND
     1     1     3    1
     2     1     2    1
     3     2    24    1
     4     2     7    1
     5     2    25    1
     6     3    10    1
     7     3    11    1
     8     3     4    1
     9     4    12    1
    10     4     5    1
    11     4    13    1
    12     5    15    1
    13     5    14    1
    14     5     8    1
    15     6    20    1
    16     6     7    1
    17     6     9    1
    18     6    21    1
    19     7    22    1
    20     7    23    1
    21     8     9    1
    22     8    16    1
    23     8    17    1
    24     9    19    1
    25     9    18    1
@<TRIPOS>MOLECULE
S_SiF2_8_cyclic
 25 25 0 0 0
SMALL
GASTEIGER
****
Schrodinger Suite 2023-1.
@<TRIPOS>ATOM
      1 S           0.4317   -1.6082    2.0831 S.3     1  UNL1        0.0000
      2 SI          0.1350   -2.7871    3.8400 Si      1  UNL1        0.0000
      3 SI         -0.3884    0.2246    2.8108 Si      1  UNL1        0.0000
      4 SI         -1.2998    1.4591    0.9412 Si      1  UNL1        0.0000
      5 SI         -2.3955   -0.1813   -0.4185 Si      1  UNL1        0.0000
      6 SI          0.6071   -5.1261    0.9176 Si      1  UNL1        0.0000
      7 SI          0.7380   -5.0694    3.3123 Si      1  UNL1        0.0000
      8 SI         -0.9801   -1.9902   -1.1580 Si      1  UNL1        0.0000
      9 SI         -1.3641   -3.9551    0.1898 Si      1  UNL1        0.0000
     10 F           0.7943    1.0310    3.5596 F       1  UNL1        0.0000
     11 F          -1.5352   -0.0799    3.9043 F       1  UNL1        0.0000
     12 F          -0.1389    2.2147    0.0968 F       1  UNL1        0.0000
     13 F          -2.3376    2.6069    1.4296 F       1  UNL1        0.0000
     14 F          -3.6395   -0.8000    0.4151 F       1  UNL1        0.0000
     15 F          -3.0715    0.5437   -1.7013 F       1  UNL1        0.0000
     16 F           0.5743   -1.5350   -1.1471 F       1  UNL1        0.0000
     17 F          -1.2993   -2.3344   -2.7096 F       1  UNL1        0.0000
     18 F          -2.1962   -3.5298    1.5139 F       1  UNL1        0.0000
     19 F          -2.3505   -4.9741   -0.5941 F       1  UNL1        0.0000
     20 F           1.9348   -4.4775    0.2530 F       1  UNL1        0.0000
     21 F           0.5692   -6.6617    0.3983 F       1  UNL1        0.0000
     22 F          -0.2869   -6.1347    3.9812 F       1  UNL1        0.0000
     23 F           2.2258   -5.4497    3.8366 F       1  UNL1        0.0000
     24 F           1.0139   -2.1526    5.0376 F       1  UNL1        0.0000
     25 F          -1.4236   -2.7075    4.2527 F       1  UNL1        0.0000
@<TRIPOS>BOND
     1     1     3    1
     2     1     2    1
     3     2    24    1
     4     2     7    1
     5     2    25    1
     6     3    10    1
     7     3    11    1
     8     3     4    1
     9     4    12    1
    10     4     5    1
    11     4    13    1
    12     5    15    1
    13     5    14    1
    14     5     8    1
    15     6    20    1
    16     6     7    1
    17     6     9    1
    18     6    21    1
    19     7    22    1
    20     7    23    1
    21     8     9    1
    22     8    16    1
    23     8    17    1
    24     9    19    1
    25     9    18    1
@<TRIPOS>MOLECULE
S_SiF2_8_cyclic
 25 25 0 0 0
SMALL
GASTEIGER
****
Schrodinger Suite 2023-1.
@<TRIPOS>ATOM
      1 S           0.4316   -1.6081    2.0833 S.3     1  UNL1        0.0000
      2 SI          2.1916   -1.3654    3.2700 Si      1  UNL1        0.0000
      3 SI         -1.0053   -1.0506    3.5619 Si      1  UNL1        0.0000
      4 SI         -3.0772   -2.2112    3.1027 Si      1  UNL1        0.0000
      5 SI         -2.4267   -4.4314    2.4802 Si      1  UNL1        0.0000
      6 SI          3.0454   -3.5809    0.3374 Si      1  UNL1        0.0000
      7 SI          4.0740   -2.1647    1.9779 Si      1  UNL1        0.0000
      8 SI         -0.9097   -4.5529    0.6079 Si      1  UNL1        0.0000
      9 SI          1.3455   -4.9237    1.3834 Si      1  UNL1        0.0000
     10 F          -1.1759    0.5547    3.5032 F       1  UNL1        0.0000
     11 F          -0.4578   -1.4264    5.0325 F       1  UNL1        0.0000
     12 F          -3.9087   -1.5043    1.9025 F       1  UNL1        0.0000
     13 F          -4.0557   -2.2259    4.3970 F       1  UNL1        0.0000
     14 F          -1.7354   -5.1479    3.7586 F       1  UNL1        0.0000
     15 F          -3.7497   -5.3158    2.1705 F       1  UNL1        0.0000
     16 F          -1.0308   -3.2221   -0.3075 F       1  UNL1        0.0000
     17 F          -1.3461   -5.7691   -0.3709 F       1  UNL1        0.0000
     18 F           1.4075   -4.6354    2.9771 F       1  UNL1        0.0000
     19 F           1.7225   -6.4936    1.2444 F       1  UNL1        0.0000
     20 F           2.4164   -2.7015   -0.8692 F       1  UNL1        0.0000
     21 F           4.1611   -4.5315   -0.3558 F       1  UNL1        0.0000
     22 F           5.1255   -2.9949    2.8931 F       1  UNL1        0.0000
     23 F           4.9026   -0.9541    1.2841 F       1  UNL1        0.0000
     24 F           2.3166    0.1895    3.6894 F       1  UNL1        0.0000
     25 F           2.0293   -2.2453    4.6136 F       1  UNL1        0.0000
@<TRIPOS>BOND
     1     1     3    1
     2     1     2    1
     3     2    24    1
     4     2     7    1
     5     2    25    1
     6     3    10    1
     7     3    11    1
     8     3     4    1
     9     4    12    1
    10     4     5    1
    11     4    13    1
    12     5    15    1
    13     5    14    1
    14     5     8    1
    15     6    20    1
    16     6     7    1
    17     6     9    1
    18     6    21    1
    19     7    22    1
    20     7    23    1
    21     8     9    1
    22     8    16    1
    23     8    17    1
    24     9    19    1
    25     9    18    1
@<TRIPOS>MOLECULE
S_SiF2_8_cyclic
 25 25 0 0 0
SMALL
GASTEIGER
****
Schrodinger Suite 2023-1.
@<TRIPOS>ATOM
      1 S           0.4314   -1.6082    2.0832 S.3     1  UNL1        0.0000
      2 SI          2.1504   -0.3836    1.7564 Si      1  UNL1        0.0000
      3 SI         -1.0595   -0.0918    1.8776 Si      1  UNL1        0.0000
      4 SI         -3.2254   -1.1671    1.9421 Si      1  UNL1        0.0000
      5 SI         -2.7179   -3.4459    1.3906 Si      1  UNL1        0.0000
      6 SI          2.7874   -3.1421   -0.8137 Si      1  UNL1        0.0000
      7 SI          3.8973   -1.7471    0.7869 Si      1  UNL1        0.0000
      8 SI         -1.1357   -3.5046   -0.4204 Si      1  UNL1        0.0000
      9 SI          1.0052   -4.4958    0.0883 Si      1  UNL1        0.0000
     10 F          -0.8491    0.6442    0.4565 F       1  UNL1        0.0000
     11 F          -0.8494    0.9965    3.0527 F       1  UNL1        0.0000
     12 F          -4.2535   -0.5185    0.8674 F       1  UNL1        0.0000
     13 F          -3.9277   -1.0495    3.4002 F       1  UNL1        0.0000
     14 F          -2.1378   -4.2351    2.6813 F       1  UNL1        0.0000
     15 F          -4.0730   -4.2332    0.9749 F       1  UNL1        0.0000
     16 F          -0.9042   -1.9791   -0.9164 F       1  UNL1        0.0000
     17 F          -1.7939   -4.2476   -1.7013 F       1  UNL1        0.0000
     18 F           1.2129   -4.7204    1.6790 F       1  UNL1        0.0000
     19 F           1.0719   -5.9837   -0.5515 F       1  UNL1        0.0000
     20 F           2.1857   -2.2051   -1.9907 F       1  UNL1        0.0000
     21 F           3.8758   -4.0912   -1.5506 F       1  UNL1        0.0000
     22 F           4.6459   -2.6505    1.9072 F       1  UNL1        0.0000
     23 F           5.0439   -0.8404    0.0824 F       1  UNL1        0.0000
     24 F           1.7762    0.8419    0.7757 F       1  UNL1        0.0000
     25 F           2.5838    0.2479    3.1787 F       1  UNL1        0.0000
@<TRIPOS>BOND
     1     1     3    1
     2     1     2    1
     3     2    24    1
     4     2     7    1
     5     2    25    1
     6     3    10    1
     7     3    11    1
     8     3     4    1
     9     4    12    1
    10     4     5    1
    11     4    13    1
    12     5    15    1
    13     5    14    1
    14     5     8    1
    15     6    20    1
    16     6     7    1
    17     6     9    1
    18     6    21    1
    19     7    22    1
    20     7    23    1
    21     8     9    1
    22     8    16    1
    23     8    17    1
    24     9    19    1
    25     9    18    1
@<TRIPOS>MOLECULE
S_SiF2_8_cyclic
 25 25 0 0 0
SMALL
GASTEIGER
****
Schrodinger Suite 2023-1.
@<TRIPOS>ATOM
      1 S           0.4315   -1.6081    2.0830 S.3     1  UNL1        0.0000
      2 SI          1.7240   -2.8750    0.9490 Si      1  UNL1        0.0000
      3 SI         -0.9242   -1.0851    0.5168 Si      1  UNL1        0.0000
      4 SI         -2.7328    0.1886    1.4954 Si      1  UNL1        0.0000
      5 SI         -2.6203   -0.4030    3.8176 Si      1  UNL1        0.0000
      6 SI          0.8639   -5.2112    3.8515 Si      1  UNL1        0.0000
      7 SI          2.6703   -4.5378    2.4290 Si      1  UNL1        0.0000
      8 SI         -2.2478   -2.7700    4.0300 Si      1  UNL1        0.0000
      9 SI         -0.1752   -3.4162    5.0844 Si      1  UNL1        0.0000
     10 F          -1.4964   -2.4439   -0.1404 F       1  UNL1        0.0000
     11 F          -0.1090   -0.2731   -0.6170 F       1  UNL1        0.0000
     12 F          -4.1690   -0.2135    0.8565 F       1  UNL1        0.0000
     13 F          -2.5482    1.7861    1.2783 F       1  UNL1        0.0000
     14 F          -1.4496    0.4289    4.5675 F       1  UNL1        0.0000
     15 F          -3.9963    0.0159    4.5660 F       1  UNL1        0.0000
     16 F          -2.3014   -3.4083    2.5413 F       1  UNL1        0.0000
     17 F          -3.4948   -3.4550    4.8056 F       1  UNL1        0.0000
     18 F           0.8468   -2.1692    5.2404 F       1  UNL1        0.0000
     19 F          -0.4744   -3.8981    6.6029 F       1  UNL1        0.0000
     20 F          -0.2637   -5.9439    2.9476 F       1  UNL1        0.0000
     21 F           1.3819   -6.3528    4.8796 F       1  UNL1        0.0000
     22 F           3.8924   -3.9337    3.3083 F       1  UNL1        0.0000
     23 F           3.2727   -5.7997    1.6057 F       1  UNL1        0.0000
     24 F           0.8974   -3.5807   -0.2437 F       1  UNL1        0.0000
     25 F           2.8559   -1.9437    0.2699 F       1  UNL1        0.0000
@<TRIPOS>BOND
     1     1     3    1
     2     1     2    1
     3     2    24    1
     4     2     7    1
     5     2    25    1
     6     3    10    1
     7     3    11    1
     8     3     4    1
     9     4    12    1
    10     4     5    1
    11     4    13    1
    12     5    15    1
    13     5    14    1
    14     5     8    1
    15     6    20    1
    16     6     7    1
    17     6     9    1
    18     6    21    1
    19     7    22    1
    20     7    23    1
    21     8     9    1
    22     8    16    1
    23     8    17    1
    24     9    19    1
    25     9    18    1
@<TRIPOS>MOLECULE
S_SiF2_8_cyclic
 25 25 0 0 0
SMALL
GASTEIGER
****
Schrodinger Suite 2023-1.
@<TRIPOS>ATOM
      1 S           0.4316   -1.6078    2.0832 S.3     1  UNL1        0.0000
      2 SI         -0.8872   -1.5934    0.4034 Si      1  UNL1        0.0000
      3 SI          1.3701    0.2811    1.7429 Si      1  UNL1        0.0000
      4 SI          3.1618    0.5204    3.3504 Si      1  UNL1        0.0000
      5 SI          3.5908   -1.7406    4.0278 Si      1  UNL1        0.0000
      6 SI          0.8186   -4.9776   -0.1083 Si      1  UNL1        0.0000
      7 SI         -1.3041   -3.8785   -0.2713 Si      1  UNL1        0.0000
      8 SI          3.5695   -3.1787    2.0996 Si      1  UNL1        0.0000
      9 SI          1.8480   -4.8699    2.0714 Si      1  UNL1        0.0000
     10 F           0.2489    1.4384    1.8564 F       1  UNL1        0.0000
     11 F           1.9673    0.2943    0.2432 F       1  UNL1        0.0000
     12 F           2.7371    1.4494    4.6113 F       1  UNL1        0.0000
     13 F           4.4807    1.1945    2.6883 F       1  UNL1        0.0000
     14 F           5.0245   -1.8340    4.7793 F       1  UNL1        0.0000
     15 F           2.4980   -2.2319    5.1185 F       1  UNL1        0.0000
     16 F           5.0227   -3.8716    1.9149 F       1  UNL1        0.0000
     17 F           3.4040   -2.2379    0.7902 F       1  UNL1        0.0000
     18 F           2.5030   -6.3067    2.4379 F       1  UNL1        0.0000
     19 F           0.7286   -4.6223    3.2156 F       1  UNL1        0.0000
     20 F           0.6621   -6.5257   -0.5632 F       1  UNL1        0.0000
     21 F           1.8274   -4.3231   -1.1941 F       1  UNL1        0.0000
     22 F          -1.8942   -3.9596   -1.7807 F       1  UNL1        0.0000
     23 F          -2.3936   -4.5995    0.6903 F       1  UNL1        0.0000
     24 F          -2.2397   -0.8280    0.8446 F       1  UNL1        0.0000
     25 F          -0.2287   -0.7550   -0.8078 F       1  UNL1        0.0000
@<TRIPOS>BOND
     1     1     3    1
     2     1     2    1
     3     2    24    1
     4     2     7    1
     5     2    25    1
     6     3    10    1
     7     3    11    1
     8     3     4    1
     9     4    12    1
    10     4     5    1
    11     4    13    1
    12     5    15    1
    13     5    14    1
    14     5     8    1
    15     6    20    1
    16     6     7    1
    17     6     9    1
    18     6    21    1
    19     7    22    1
    20     7    23    1
    21     8     9    1
    22     8    16    1
    23     8    17    1
    24     9    19    1
    25     9    18    1
@<TRIPOS>MOLECULE
S_SiF2_8_cyclic
 25 25 0 0 0
SMALL
GASTEIGER
****
Schrodinger Suite 2023-1.
@<TRIPOS>ATOM
      1 S           0.4316   -1.6081    2.0832 S.3     1  UNL1        0.0000
      2 SI         -1.4018   -2.1679    1.1289 Si      1  UNL1        0.0000
      3 SI          1.3892   -1.0067    0.2647 Si      1  UNL1        0.0000
      4 SI          1.0177    1.2697   -0.5369 Si      1  UNL1        0.0000
      5 SI         -0.7164    1.2442   -2.1862 Si      1  UNL1        0.0000
      6 SI         -1.1047   -4.3332   -2.1468 Si      1  UNL1        0.0000
      7 SI         -1.5777   -4.4184    0.1977 Si      1  UNL1        0.0000
      8 SI         -0.4791   -0.6702   -3.6031 Si      1  UNL1        0.0000
      9 SI         -2.0960   -2.3831   -3.1180 Si      1  UNL1        0.0000
     10 F           0.8195   -2.0531   -0.8314 F       1  UNL1        0.0000
     11 F           2.9636   -1.3375    0.4046 F       1  UNL1        0.0000
     12 F           2.3747    1.8691   -1.1923 F       1  UNL1        0.0000
     13 F           0.6288    2.2706    0.6785 F       1  UNL1        0.0000
     14 F          -2.1783    1.2396   -1.4886 F       1  UNL1        0.0000
     15 F          -0.6641    2.6007   -3.0715 F       1  UNL1        0.0000
     16 F           1.0224   -1.2485   -3.4218 F       1  UNL1        0.0000
     17 F          -0.5826   -0.2302   -5.1586 F       1  UNL1        0.0000
     18 F          -3.2163   -1.8228   -2.0918 F       1  UNL1        0.0000
     19 F          -2.9083   -2.7799   -4.4622 F       1  UNL1        0.0000
     20 F           0.4927   -4.3351   -2.4152 F       1  UNL1        0.0000
     21 F          -1.6675   -5.6656   -2.8780 F       1  UNL1        0.0000
     22 F          -3.0702   -5.0112    0.4243 F       1  UNL1        0.0000
     23 F          -0.5702   -5.4486    0.9418 F       1  UNL1        0.0000
     24 F          -2.6075   -1.8545    2.1565 F       1  UNL1        0.0000
     25 F          -1.5560   -1.0872   -0.0666 F       1  UNL1        0.0000
@<TRIPOS>BOND
     1     1     3    1
     2     1     2    1
     3     2    24    1
     4     2     7    1
     5     2    25    1
     6     3    10    1
     7     3    11    1
     8     3     4    1
     9     4    12    1
    10     4     5    1
    11     4    13    1
    12     5    15    1
    13     5    14    1
    14     5     8    1
    15     6    20    1
    16     6     7    1
    17     6     9    1
    18     6    21    1
    19     7    22    1
    20     7    23    1
    21     8     9    1
    22     8    16    1
    23     8    17    1
    24     9    19    1
    25     9    18    1
@<TRIPOS>MOLECULE
S_SiF2_8_cyclic
 25 25 0 0 0
SMALL
GASTEIGER
****
Schrodinger Suite 2023-1.
@<TRIPOS>ATOM
      1 S           0.4316   -1.6081    2.0832 S.3     1  UNL1        0.0000
      2 SI         -0.0819   -1.3508    0.0204 Si      1  UNL1        0.0000
      3 SI          1.4686    0.2596    2.2310 Si      1  UNL1        0.0000
      4 SI          0.1673    2.2665    2.7225 Si      1  UNL1        0.0000
      5 SI         -0.3153    3.4058    0.6738 Si      1  UNL1        0.0000
      6 SI          2.7849   -0.1078   -2.3764 Si      1  UNL1        0.0000
      7 SI          1.5469   -2.0295   -1.6676 Si      1  UNL1        0.0000
      8 SI          1.5913    3.3463   -0.7720 Si      1  UNL1        0.0000
      9 SI          1.3300    1.7818   -2.5796 Si      1  UNL1        0.0000
     10 F           2.1675    0.4246    0.7801 F       1  UNL1        0.0000
     11 F           2.6822    0.0674    3.2790 F       1  UNL1        0.0000
     12 F           0.9972    3.2545    3.7050 F       1  UNL1        0.0000
     13 F          -1.2055    1.9060    3.5072 F       1  UNL1        0.0000
     14 F          -1.5944    2.7449   -0.0683 F       1  UNL1        0.0000
     15 F          -0.7362    4.9415    0.9755 F       1  UNL1        0.0000
     16 F           2.8879    2.9629    0.1190 F       1  UNL1        0.0000
     17 F           1.8963    4.8264   -1.3553 F       1  UNL1        0.0000
     18 F          -0.1949    1.2400   -2.6367 F       1  UNL1        0.0000
     19 F           1.5731    2.5238   -3.9989 F       1  UNL1        0.0000
     20 F           3.9828    0.2241   -1.3379 F       1  UNL1        0.0000
     21 F           3.5118   -0.4045   -3.7942 F       1  UNL1        0.0000
     22 F           0.7980   -2.6887   -2.9462 F       1  UNL1        0.0000
     23 F           2.5491   -3.1711   -1.0996 F       1  UNL1        0.0000
     24 F          -1.5156   -2.0537   -0.2215 F       1  UNL1        0.0000
     25 F          -0.3488    0.2405   -0.1116 F       1  UNL1        0.0000
@<TRIPOS>BOND
     1     1     3    1
     2     1     2    1
     3     2    24    1
     4     2     7    1
     5     2    25    1
     6     3    10    1
     7     3    11    1
     8     3     4    1
     9     4    12    1
    10     4     5    1
    11     4    13    1
    12     5    15    1
    13     5    14    1
    14     5     8    1
    15     6    20    1
    16     6     7    1
    17     6     9    1
    18     6    21    1
    19     7    22    1
    20     7    23    1
    21     8     9    1
    22     8    16    1
    23     8    17    1
    24     9    19    1
    25     9    18    1
@<TRIPOS>MOLECULE
S_SiF2_8_cyclic
 25 25 0 0 0
SMALL
GASTEIGER
****
Schrodinger Suite 2023-1.
@<TRIPOS>ATOM
      1 S           0.4316   -1.6081    2.0830 S.3     1  UNL1        0.0000
      2 SI          1.5185   -0.3745    3.4549 Si      1  UNL1        0.0000
      3 SI         -1.3901   -1.5418    3.2065 Si      1  UNL1        0.0000
      4 SI         -2.9032    0.3398    2.8415 Si      1  UNL1        0.0000
      5 SI         -2.5266    1.9856    4.5378 Si      1  UNL1        0.0000
      6 SI          1.1384   -1.2240    7.2813 Si      1  UNL1        0.0000
      7 SI          2.5749   -1.4433    5.3796 Si      1  UNL1        0.0000
      8 SI         -2.1666    0.9238    6.6525 Si      1  UNL1        0.0000
      9 SI          0.1444    0.9530    7.3171 Si      1  UNL1        0.0000
     10 F          -0.8892   -1.5268    4.7458 F       1  UNL1        0.0000
     11 F          -2.1430   -2.9565    3.0077 F       1  UNL1        0.0000
     12 F          -4.4470   -0.1531    2.9033 F       1  UNL1        0.0000
     13 F          -2.6998    0.9876    1.3687 F       1  UNL1        0.0000
     14 F          -1.2582    2.9213    4.1645 F       1  UNL1        0.0000
     15 F          -3.7939    2.9917    4.6298 F       1  UNL1        0.0000
     16 F          -2.7017   -0.6009    6.5488 F       1  UNL1        0.0000
     17 F          -3.0832    1.6217    7.7912 F       1  UNL1        0.0000
     18 F           0.9991    1.9133    6.3327 F       1  UNL1        0.0000
     19 F           0.2928    1.6106    8.7901 F       1  UNL1        0.0000
     20 F          -0.0159   -2.3603    7.2686 F       1  UNL1        0.0000
     21 F           1.9768   -1.4747    8.6454 F       1  UNL1        0.0000
     22 F           4.0038   -0.7472    5.7018 F       1  UNL1        0.0000
     23 F           2.8949   -3.0063    5.0886 F       1  UNL1        0.0000
     24 F           2.5794    0.4942    2.6017 F       1  UNL1        0.0000
     25 F           0.4105    0.6831    3.9789 F       1  UNL1        0.0000
@<TRIPOS>BOND
     1     1     3    1
     2     1     2    1
     3     2    24    1
     4     2     7    1
     5     2    25    1
     6     3    10    1
     7     3    11    1
     8     3     4    1
     9     4    12    1
    10     4     5    1
    11     4    13    1
    12     5    15    1
    13     5    14    1
    14     5     8    1
    15     6    20    1
    16     6     7    1
    17     6     9    1
    18     6    21    1
    19     7    22    1
    20     7    23    1
    21     8     9    1
    22     8    16    1
    23     8    17    1
    24     9    19    1
    25     9    18    1
@<TRIPOS>MOLECULE
S_SiF2_8_cyclic
 25 25 0 0 0
SMALL
GASTEIGER
****
Schrodinger Suite 2023-1.
@<TRIPOS>ATOM
      1 S           0.4315   -1.6081    2.0831 S.3     1  UNL1        0.0000
      2 SI          2.5387   -1.4343    1.7443 Si      1  UNL1        0.0000
      3 SI          0.4185   -3.7458    1.9589 Si      1  UNL1        0.0000
      4 SI          0.9285   -5.0216    3.9777 Si      1  UNL1        0.0000
      5 SI          3.2386   -5.6468    3.9455 Si      1  UNL1        0.0000
      6 SI          4.0514   -3.5837   -1.1872 Si      1  UNL1        0.0000
      7 SI          3.3366   -1.3866   -0.5630 Si      1  UNL1        0.0000
      8 SI          3.8859   -6.2964    1.7347 Si      1  UNL1        0.0000
      9 SI          5.2123   -4.6216    0.6305 Si      1  UNL1        0.0000
     10 F           1.5341   -4.0703    0.8316 F       1  UNL1        0.0000
     11 F          -0.9933   -4.1929    1.3149 F       1  UNL1        0.0000
     12 F           0.0110   -6.3568    4.0520 F       1  UNL1        0.0000
     13 F           0.5903   -4.1723    5.3173 F       1  UNL1        0.0000
     14 F           4.1747   -4.4303    4.4625 F       1  UNL1        0.0000
     15 F           3.5010   -6.8649    4.9818 F       1  UNL1        0.0000
     16 F           2.5414   -6.5975    0.8841 F       1  UNL1        0.0000
     17 F           4.6878   -7.7032    1.7782 F       1  UNL1        0.0000
     18 F           5.6438   -3.4657    1.6791 F       1  UNL1        0.0000
     19 F           6.6037   -5.2665    0.1091 F       1  UNL1        0.0000
     20 F           2.7903   -4.4973   -1.6329 F       1  UNL1        0.0000
     21 F           5.0126   -3.5083   -2.4899 F       1  UNL1        0.0000
     22 F           4.5779   -0.3538   -0.7131 F       1  UNL1        0.0000
     23 F           2.1879   -0.8551   -1.5770 F       1  UNL1        0.0000
     24 F           3.0690   -0.1599    2.5826 F       1  UNL1        0.0000
     25 F           3.1539   -2.7330    2.4896 F       1  UNL1        0.0000
@<TRIPOS>BOND
     1     1     3    1
     2     1     2    1
     3     2    24    1
     4     2     7    1
     5     2    25    1
     6     3    10    1
     7     3    11    1
     8     3     4    1
     9     4    12    1
    10     4     5    1
    11     4    13    1
    12     5    15    1
    13     5    14    1
    14     5     8    1
    15     6    20    1
    16     6     7    1
    17     6     9    1
    18     6    21    1
    19     7    22    1
    20     7    23    1
    21     8     9    1
    22     8    16    1
    23     8    17    1
    24     9    19    1
    25     9    18    1
@<TRIPOS>MOLECULE
S_SiF2_8_cyclic
 25 25 0 0 0
SMALL
GASTEIGER
****
Schrodinger Suite 2023-1.
@<TRIPOS>ATOM
      1 S           0.4315   -1.6080    2.0831 S.3     1  UNL1        0.0000
      2 SI         -1.2327   -2.8637    1.5354 Si      1  UNL1        0.0000
      3 SI          0.8721   -0.9132    0.1043 Si      1  UNL1        0.0000
      4 SI          0.2221    1.3004   -0.6439 Si      1  UNL1        0.0000
      5 SI          0.2958    1.1621   -3.0396 Si      1  UNL1        0.0000
      6 SI         -2.3345   -4.0289   -2.0662 Si      1  UNL1        0.0000
      7 SI         -0.9461   -4.5893   -0.1825 Si      1  UNL1        0.0000
      8 SI         -0.3277   -1.0235   -3.8452 Si      1  UNL1        0.0000
      9 SI         -2.3102   -1.7008   -2.7041 Si      1  UNL1        0.0000
     10 F           0.1366   -1.9455   -0.8953 F       1  UNL1        0.0000
     11 F           2.4447   -1.1554   -0.1655 F       1  UNL1        0.0000
     12 F           1.2194    2.4527   -0.0890 F       1  UNL1        0.0000
     13 F          -1.2700    1.6872   -0.1416 F       1  UNL1        0.0000
     14 F          -0.6782    2.2817   -3.6904 F       1  UNL1        0.0000
     15 F           1.7889    1.5216   -3.5562 F       1  UNL1        0.0000
     16 F           0.8600   -2.0822   -3.5415 F       1  UNL1        0.0000
     17 F          -0.5465   -1.0299   -5.4502 F       1  UNL1        0.0000
     18 F          -2.3839   -0.7671   -1.3848 F       1  UNL1        0.0000
     19 F          -3.6194   -1.3181   -3.5771 F       1  UNL1        0.0000
     20 F          -1.9127   -4.9278   -3.3468 F       1  UNL1        0.0000
     21 F          -3.8593   -4.4605   -1.7282 F       1  UNL1        0.0000
     22 F          -1.3336   -6.0582    0.3858 F       1  UNL1        0.0000
     23 F           0.6045   -4.6929   -0.6485 F       1  UNL1        0.0000
     24 F          -1.7948   -3.5244    2.8986 F       1  UNL1        0.0000
     25 F          -2.3864   -1.8446    1.0511 F       1  UNL1        0.0000
@<TRIPOS>BOND
     1     1     3    1
     2     1     2    1
     3     2    24    1
     4     2     7    1
     5     2    25    1
     6     3    10    1
     7     3    11    1
     8     3     4    1
     9     4    12    1
    10     4     5    1
    11     4    13    1
    12     5    15    1
    13     5    14    1
    14     5     8    1
    15     6    20    1
    16     6     7    1
    17     6     9    1
    18     6    21    1
    19     7    22    1
    20     7    23    1
    21     8     9    1
    22     8    16    1
    23     8    17    1
    24     9    19    1
    25     9    18    1
@<TRIPOS>MOLECULE
S_SiF2_8_cyclic
 25 25 0 0 0
SMALL
GASTEIGER
****
Schrodinger Suite 2023-1.
@<TRIPOS>ATOM
      1 S           0.4316   -1.6081    2.0833 S.3     1  UNL1        0.0000
      2 SI          0.6891   -0.7499    4.0438 Si      1  UNL1        0.0000
      3 SI         -1.6956   -1.3648    1.9900 Si      1  UNL1        0.0000
      4 SI         -3.2086   -3.2264    2.3468 Si      1  UNL1        0.0000
      5 SI         -5.3116   -2.1908    2.8654 Si      1  UNL1        0.0000
      6 SI         -1.9085    1.3213    6.1667 Si      1  UNL1        0.0000
      7 SI         -0.1681    1.4984    4.5144 Si      1  UNL1        0.0000
      8 SI         -5.0350   -0.1255    4.0789 Si      1  UNL1        0.0000
      9 SI         -3.4609   -0.4970    5.8325 Si      1  UNL1        0.0000
     10 F          -2.0467   -0.6166    0.6037 F       1  UNL1        0.0000
     11 F          -2.0618   -0.2800    3.1278 F       1  UNL1        0.0000
     12 F          -2.7199   -4.1675    3.5732 F       1  UNL1        0.0000
     13 F          -3.3272   -4.1797    1.0400 F       1  UNL1        0.0000
     14 F          -6.1264   -1.9056    1.4941 F       1  UNL1        0.0000
     15 F          -6.2348   -3.2087    3.7240 F       1  UNL1        0.0000
     16 F          -6.4441    0.4179    4.6645 F       1  UNL1        0.0000
     17 F          -4.4776    1.0266    3.0862 F       1  UNL1        0.0000
     18 F          -4.2299   -0.8718    7.2075 F       1  UNL1        0.0000
     19 F          -2.6579   -1.8364    5.4091 F       1  UNL1        0.0000
     20 F          -1.2198    1.1571    7.6242 F       1  UNL1        0.0000
     21 F          -2.7378    2.7113    6.2429 F       1  UNL1        0.0000
     22 F          -0.7509    2.1915    3.1682 F       1  UNL1        0.0000
     23 F           1.0100    2.4814    5.0404 F       1  UNL1        0.0000
     24 F          -0.0185   -1.7904    5.0540 F       1  UNL1        0.0000
     25 F           2.2654   -0.8275    4.3901 F       1  UNL1        0.0000
@<TRIPOS>BOND
     1     1     3    1
     2     1     2    1
     3     2    24    1
     4     2     7    1
     5     2    25    1
     6     3    10    1
     7     3    11    1
     8     3     4    1
     9     4    12    1
    10     4     5    1
    11     4    13    1
    12     5    15    1
    13     5    14    1
    14     5     8    1
    15     6    20    1
    16     6     7    1
    17     6     9    1
    18     6    21    1
    19     7    22    1
    20     7    23    1
    21     8     9    1
    22     8    16    1
    23     8    17    1
    24     9    19    1
    25     9    18    1
@<TRIPOS>MOLECULE
S_SiF2_8_cyclic
 25 25 0 0 0
SMALL
GASTEIGER
****
Schrodinger Suite 2023-1.
@<TRIPOS>ATOM
      1 S           0.4316   -1.6081    2.0829 S.3     1  UNL1        0.0000
      2 SI          0.8617   -3.5898    2.8137 Si      1  UNL1        0.0000
      3 SI         -0.6684   -0.9500    3.8002 Si      1  UNL1        0.0000
      4 SI         -3.0907   -0.8282    3.7927 Si      1  UNL1        0.0000
      5 SI         -3.6898   -0.7891    6.1172 Si      1  UNL1        0.0000
      6 SI          0.4373   -4.9907    6.4745 Si      1  UNL1        0.0000
      7 SI          1.9641   -3.8774    4.9846 Si      1  UNL1        0.0000
      8 SI         -2.1779   -2.0931    7.4694 Si      1  UNL1        0.0000
      9 SI         -1.8407   -4.1955    6.3937 Si      1  UNL1        0.0000
     10 F          -0.0393    0.4565    4.2805 F       1  UNL1        0.0000
     11 F          -0.2864   -1.9783    4.9844 F       1  UNL1        0.0000
     12 F          -3.7517   -2.1124    3.0561 F       1  UNL1        0.0000
     13 F          -3.6362    0.4899    3.0210 F       1  UNL1        0.0000
     14 F          -3.7025    0.7423    6.6465 F       1  UNL1        0.0000
     15 F          -5.2032   -1.3353    6.3096 F       1  UNL1        0.0000
     16 F          -2.7409   -2.2912    8.9753 F       1  UNL1        0.0000
     17 F          -0.7598   -1.3230    7.6092 F       1  UNL1        0.0000
     18 F          -2.8686   -5.2993    6.9831 F       1  UNL1        0.0000
     19 F          -2.2900   -3.9658    4.8564 F       1  UNL1        0.0000
     20 F           0.4485   -6.5748    6.1337 F       1  UNL1        0.0000
     21 F           0.9773   -4.8803    7.9982 F       1  UNL1        0.0000
     22 F           2.4011   -2.4449    5.6083 F       1  UNL1        0.0000
     23 F           3.3355   -4.7316    4.8419 F       1  UNL1        0.0000
     24 F          -0.5664   -4.3396    2.8603 F       1  UNL1        0.0000
     25 F           1.7012   -4.3470    1.6593 F       1  UNL1        0.0000
@<TRIPOS>BOND
     1     1     3    1
     2     1     2    1
     3     2    24    1
     4     2     7    1
     5     2    25    1
     6     3    10    1
     7     3    11    1
     8     3     4    1
     9     4    12    1
    10     4     5    1
    11     4    13    1
    12     5    15    1
    13     5    14    1
    14     5     8    1
    15     6    20    1
    16     6     7    1
    17     6     9    1
    18     6    21    1
    19     7    22    1
    20     7    23    1
    21     8     9    1
    22     8    16    1
    23     8    17    1
    24     9    19    1
    25     9    18    1
@<TRIPOS>MOLECULE
S_SiF2_8_cyclic
 25 25 0 0 0
SMALL
GASTEIGER
****
Schrodinger Suite 2023-1.
@<TRIPOS>ATOM
      1 S           0.4316   -1.6081    2.0832 S.3     1  UNL1        0.0000
      2 SI          1.8915   -1.6332    0.4975 Si      1  UNL1        0.0000
      3 SI         -0.4154    0.3009    1.6026 Si      1  UNL1        0.0000
      4 SI          0.1215    2.2916    2.8798 Si      1  UNL1        0.0000
      5 SI         -0.4849    4.1077    1.4313 Si      1  UNL1        0.0000
      6 SI          2.1292    0.7361   -2.6446 Si      1  UNL1        0.0000
      7 SI          1.1760   -1.3160   -1.8259 Si      1  UNL1        0.0000
      8 SI         -0.1255    3.5775   -0.8934 Si      1  UNL1        0.0000
      9 SI          2.0380    2.5959   -1.1081 Si      1  UNL1        0.0000
     10 F          -2.0154    0.1187    1.4970 F       1  UNL1        0.0000
     11 F           0.0470    0.6155    0.0884 F       1  UNL1        0.0000
     12 F           1.6992    2.3589    3.2469 F       1  UNL1        0.0000
     13 F          -0.6915    2.3588    4.2815 F       1  UNL1        0.0000
     14 F          -2.0430    4.4872    1.6633 F       1  UNL1        0.0000
     15 F           0.3563    5.4357    1.8242 F       1  UNL1        0.0000
     16 F          -0.2684    4.8877   -1.8352 F       1  UNL1        0.0000
     17 F          -1.2495    2.5264   -1.3990 F       1  UNL1        0.0000
     18 F           3.1325    3.7266   -1.4903 F       1  UNL1        0.0000
     19 F           2.4322    2.1005    0.3809 F       1  UNL1        0.0000
     20 F           3.6764    0.4629   -3.0409 F       1  UNL1        0.0000
     21 F           1.4053    1.1645   -4.0296 F       1  UNL1        0.0000
     22 F          -0.4419   -1.2565   -1.9325 F       1  UNL1        0.0000
     23 F           1.6326   -2.5612   -2.7596 F       1  UNL1        0.0000
     24 F           2.9412   -0.4670    0.8746 F       1  UNL1        0.0000
     25 F           2.7205   -3.0128    0.6404 F       1  UNL1        0.0000
@<TRIPOS>BOND
     1     1     3    1
     2     1     2    1
     3     2    24    1
     4     2     7    1
     5     2    25    1
     6     3    10    1
     7     3    11    1
     8     3     4    1
     9     4    12    1
    10     4     5    1
    11     4    13    1
    12     5    15    1
    13     5    14    1
    14     5     8    1
    15     6    20    1
    16     6     7    1
    17     6     9    1
    18     6    21    1
    19     7    22    1
    20     7    23    1
    21     8     9    1
    22     8    16    1
    23     8    17    1
    24     9    19    1
    25     9    18    1
@<TRIPOS>MOLECULE
S_SiF2_8_cyclic
 25 25 0 0 0
SMALL
GASTEIGER
****
Schrodinger Suite 2023-1.
@<TRIPOS>ATOM
      1 S           0.4315   -1.6081    2.0832 S.3     1  UNL1        0.0000
      2 SI          2.1437   -1.0671    3.2529 Si      1  UNL1        0.0000
      3 SI         -0.8576   -2.0848    3.7437 Si      1  UNL1        0.0000
      4 SI         -1.2297   -0.4309    5.5149 Si      1  UNL1        0.0000
      5 SI         -0.3135   -1.2911    7.5669 Si      1  UNL1        0.0000
      6 SI          5.1782   -1.7443    5.4575 Si      1  UNL1        0.0000
      7 SI          4.0344   -2.5639    3.5122 Si      1  UNL1        0.0000
      8 SI          1.8462   -2.3504    7.3630 Si      1  UNL1        0.0000
      9 SI          3.6580   -0.8235    7.0872 Si      1  UNL1        0.0000
     10 F          -0.2174   -3.4099    4.4057 F       1  UNL1        0.0000
     11 F          -2.2711   -2.5613    3.1226 F       1  UNL1        0.0000
     12 F          -2.8081   -0.1045    5.6960 F       1  UNL1        0.0000
     13 F          -0.5276    0.9842    5.1450 F       1  UNL1        0.0000
     14 F          -0.2131   -0.1035    8.6647 F       1  UNL1        0.0000
     15 F          -1.3607   -2.3588    8.1906 F       1  UNL1        0.0000
     16 F           1.8765   -3.2916    6.0472 F       1  UNL1        0.0000
     17 F           2.1328   -3.3430    8.6100 F       1  UNL1        0.0000
     18 F           3.0904    0.6018    6.5675 F       1  UNL1        0.0000
     19 F           4.3977   -0.5338    8.4989 F       1  UNL1        0.0000
     20 F           6.0470   -2.9337    6.1328 F       1  UNL1        0.0000
     21 F           6.2488   -0.6105    5.0175 F       1  UNL1        0.0000
     22 F           5.0041   -2.5581    2.2121 F       1  UNL1        0.0000
     23 F           3.5569   -4.0969    3.7365 F       1  UNL1        0.0000
     24 F           2.6436    0.3843    2.7546 F       1  UNL1        0.0000
     25 F           1.5881   -0.8023    4.7451 F       1  UNL1        0.0000
@<TRIPOS>BOND
     1     1     3    1
     2     1     2    1
     3     2    24    1
     4     2     7    1
     5     2    25    1
     6     3    10    1
     7     3    11    1
     8     3     4    1
     9     4    12    1
    10     4     5    1
    11     4    13    1
    12     5    15    1
    13     5    14    1
    14     5     8    1
    15     6    20    1
    16     6     7    1
    17     6     9    1
    18     6    21    1
    19     7    22    1
    20     7    23    1
    21     8     9    1
    22     8    16    1
    23     8    17    1
    24     9    19    1
    25     9    18    1
@<TRIPOS>MOLECULE
S_SiF2_8_cyclic
 25 25 0 0 0
SMALL
GASTEIGER
****
Schrodinger Suite 2023-1.
@<TRIPOS>ATOM
      1 S           0.4317   -1.6082    2.0833 S.3     1  UNL1        0.0000
      2 SI          2.3407   -1.3948    1.1052 Si      1  UNL1        0.0000
      3 SI         -0.3430    0.3103    1.5249 Si      1  UNL1        0.0000
      4 SI         -1.9644    0.5590   -0.2616 Si      1  UNL1        0.0000
      5 SI         -1.8221    2.8759   -0.8743 Si      1  UNL1        0.0000
      6 SI          3.9712    1.8699   -0.3866 Si      1  UNL1        0.0000
      7 SI          3.7609    0.5395    1.6074 Si      1  UNL1        0.0000
      8 SI          0.4155    3.7438   -0.6406 Si      1  UNL1        0.0000
      9 SI          1.9266    2.1858   -1.6306 Si      1  UNL1        0.0000
     10 F           0.9374    1.1857    1.0780 F       1  UNL1        0.0000
     11 F          -0.8709    1.0388    2.8647 F       1  UNL1        0.0000
     12 F          -3.4648    0.1658    0.2127 F       1  UNL1        0.0000
     13 F          -1.6080   -0.3876   -1.5287 F       1  UNL1        0.0000
     14 F          -2.3295    3.0789   -2.3998 F       1  UNL1        0.0000
     15 F          -2.8354    3.7419    0.0470 F       1  UNL1        0.0000
     16 F           0.7752    3.9243    0.9283 F       1  UNL1        0.0000
     17 F           0.5625    5.2092   -1.3151 F       1  UNL1        0.0000
     18 F           1.1099    0.7915   -1.7124 F       1  UNL1        0.0000
     19 F           2.2320    2.5976   -3.1667 F       1  UNL1        0.0000
     20 F           4.5892    3.3213   -0.0165 F       1  UNL1        0.0000
     21 F           5.0687    1.1754   -1.3555 F       1  UNL1        0.0000
     22 F           5.2240    0.0772    2.1331 F       1  UNL1        0.0000
     23 F           3.1253    1.4317    2.8042 F       1  UNL1        0.0000
     24 F           3.1577   -2.7653    1.3604 F       1  UNL1        0.0000
     25 F           2.0057   -1.3891   -0.4733 F       1  UNL1        0.0000
@<TRIPOS>BOND
     1     1     3    1
     2     1     2    1
     3     2    24    1
     4     2     7    1
     5     2    25    1
     6     3    10    1
     7     3    11    1
     8     3     4    1
     9     4    12    1
    10     4     5    1
    11     4    13    1
    12     5    15    1
    13     5    14    1
    14     5     8    1
    15     6    20    1
    16     6     7    1
    17     6     9    1
    18     6    21    1
    19     7    22    1
    20     7    23    1
    21     8     9    1
    22     8    16    1
    23     8    17    1
    24     9    19    1
    25     9    18    1
@<TRIPOS>MOLECULE
S_SiF2_8_cyclic
 25 25 0 0 0
SMALL
GASTEIGER
****
Schrodinger Suite 2023-1.
@<TRIPOS>ATOM
      1 S           0.4316   -1.6081    2.0832 S.3     1  UNL1        0.0000
      2 SI          2.4457   -1.3703    2.7711 Si      1  UNL1        0.0000
      3 SI          0.1040    0.5011    1.9085 Si      1  UNL1        0.0000
      4 SI         -0.4291    1.7534    3.9187 Si      1  UNL1        0.0000
      5 SI          0.8843    3.7369    3.7587 Si      1  UNL1        0.0000
      6 SI          5.5201    0.7749    2.0950 Si      1  UNL1        0.0000
      7 SI          4.1800   -0.9430    1.1267 Si      1  UNL1        0.0000
      8 SI          3.2176    3.3048    4.1345 Si      1  UNL1        0.0000
      9 SI          4.4029    2.9020    2.0889 Si      1  UNL1        0.0000
     10 F          -0.9742    0.7628    0.7350 F       1  UNL1        0.0000
     11 F           1.5117    1.0761    1.3560 F       1  UNL1        0.0000
     12 F          -0.0425    0.9314    5.2619 F       1  UNL1        0.0000
     13 F          -2.0104    2.1008    4.0173 F       1  UNL1        0.0000
     14 F           0.6882    4.3852    2.2877 F       1  UNL1        0.0000
     15 F           0.3458    4.8497    4.8065 F       1  UNL1        0.0000
     16 F           3.3909    2.0312    5.1178 F       1  UNL1        0.0000
     17 F           3.8943    4.5469    4.9242 F       1  UNL1        0.0000
     18 F           3.3721    2.9802    0.8438 F       1  UNL1        0.0000
     19 F           5.4714    4.0921    1.8317 F       1  UNL1        0.0000
     20 F           5.8869    0.3654    3.6183 F       1  UNL1        0.0000
     21 F           6.9364    0.8851    1.3149 F       1  UNL1        0.0000
     22 F           3.5614   -0.4426   -0.2862 F       1  UNL1        0.0000
     23 F           5.0598   -2.2691    0.8126 F       1  UNL1        0.0000
     24 F           2.3833   -0.0739    3.7370 F       1  UNL1        0.0000
     25 F           2.8183   -2.6185    3.7258 F       1  UNL1        0.0000
@<TRIPOS>BOND
     1     1     3    1
     2     1     2    1
     3     2    24    1
     4     2     7    1
     5     2    25    1
     6     3    10    1
     7     3    11    1
     8     3     4    1
     9     4    12    1
    10     4     5    1
    11     4    13    1
    12     5    15    1
    13     5    14    1
    14     5     8    1
    15     6    20    1
    16     6     7    1
    17     6     9    1
    18     6    21    1
    19     7    22    1
    20     7    23    1
    21     8     9    1
    22     8    16    1
    23     8    17    1
    24     9    19    1
    25     9    18    1
@<TRIPOS>MOLECULE
S_SiF2_8_cyclic
 25 25 0 0 0
SMALL
GASTEIGER
****
Schrodinger Suite 2023-1.
@<TRIPOS>ATOM
      1 S           0.4314   -1.6082    2.0833 S.3     1  UNL1        0.0000
      2 SI          0.1152   -3.5357    2.9615 Si      1  UNL1        0.0000
      3 SI         -0.5030   -0.5706    3.7070 Si      1  UNL1        0.0000
      4 SI         -2.9271   -0.4552    3.7580 Si      1  UNL1        0.0000
      5 SI         -3.4989   -0.8769    6.0338 Si      1  UNL1        0.0000
      6 SI          0.2367   -5.2308    6.3729 Si      1  UNL1        0.0000
      7 SI          1.6406   -4.2696    4.7024 Si      1  UNL1        0.0000
      8 SI         -3.1666   -3.1798    6.6316 Si      1  UNL1        0.0000
      9 SI         -0.9991   -3.5636    7.5837 Si      1  UNL1        0.0000
     10 F           0.1700    0.8911    3.8438 F       1  UNL1        0.0000
     11 F          -0.0451   -1.3958    5.0212 F       1  UNL1        0.0000
     12 F          -3.6048   -1.5686    2.7934 F       1  UNL1        0.0000
     13 F          -3.4779    0.9903    3.2700 F       1  UNL1        0.0000
     14 F          -2.5920    0.0630    6.9913 F       1  UNL1        0.0000
     15 F          -5.0345   -0.4416    6.3145 F       1  UNL1        0.0000
     16 F          -3.3563   -4.1198    5.3280 F       1  UNL1        0.0000
     17 F          -4.3139   -3.6571    7.6711 F       1  UNL1        0.0000
     18 F          -0.1692   -2.1746    7.6142 F       1  UNL1        0.0000
     19 F          -1.1526   -4.0014    9.1359 F       1  UNL1        0.0000
     20 F          -0.7972   -6.2591    5.6683 F       1  UNL1        0.0000
     21 F           1.1190   -6.1253    7.3965 F       1  UNL1        0.0000
     22 F           2.4859   -3.0333    5.3239 F       1  UNL1        0.0000
     23 F           2.7198   -5.3471    4.1499 F       1  UNL1        0.0000
     24 F          -1.3517   -3.4269    3.6351 F       1  UNL1        0.0000
     25 F          -0.0175   -4.6286    1.7799 F       1  UNL1        0.0000
@<TRIPOS>BOND
     1     1     3    1
     2     1     2    1
     3     2    24    1
     4     2     7    1
     5     2    25    1
     6     3    10    1
     7     3    11    1
     8     3     4    1
     9     4    12    1
    10     4     5    1
    11     4    13    1
    12     5    15    1
    13     5    14    1
    14     5     8    1
    15     6    20    1
    16     6     7    1
    17     6     9    1
    18     6    21    1
    19     7    22    1
    20     7    23    1
    21     8     9    1
    22     8    16    1
    23     8    17    1
    24     9    19    1
    25     9    18    1
@<TRIPOS>MOLECULE
S_SiF2_8_cyclic
 25 25 0 0 0
SMALL
GASTEIGER
****
Schrodinger Suite 2023-1.
@<TRIPOS>ATOM
      1 S           0.4316   -1.6082    2.0832 S.3     1  UNL1        0.0000
      2 SI          1.2975   -1.3036    0.1484 Si      1  UNL1        0.0000
      3 SI         -1.0718   -0.1115    1.7901 Si      1  UNL1        0.0000
      4 SI         -0.4634    2.2143    2.1263 Si      1  UNL1        0.0000
      5 SI         -1.4807    3.3690    0.3054 Si      1  UNL1        0.0000
      6 SI          0.2190   -0.6392   -3.4465 Si      1  UNL1        0.0000
      7 SI          0.2192   -2.3331   -1.7683 Si      1  UNL1        0.0000
      8 SI         -0.3636    2.9275   -1.7751 Si      1  UNL1        0.0000
      9 SI         -1.3637    1.1047   -2.9703 Si      1  UNL1        0.0000
     10 F          -2.3813   -0.5181    2.6434 F       1  UNL1        0.0000
     11 F          -1.4887   -0.2670    0.2346 F       1  UNL1        0.0000
     12 F           1.1438    2.4279    2.0987 F       1  UNL1        0.0000
     13 F          -0.9904    2.7812    3.5517 F       1  UNL1        0.0000
     14 F          -3.0311    2.9153    0.1895 F       1  UNL1        0.0000
     15 F          -1.5079    4.9626    0.5989 F       1  UNL1        0.0000
     16 F           1.1978    2.6007   -1.5029 F       1  UNL1        0.0000
     17 F          -0.3648    4.2564   -2.7017 F       1  UNL1        0.0000
     18 F          -2.5998    0.5096   -2.1119 F       1  UNL1        0.0000
     19 F          -2.0242    1.6487   -4.3459 F       1  UNL1        0.0000
     20 F           1.7038   -0.0016   -3.5555 F       1  UNL1        0.0000
     21 F          -0.0880   -1.2914   -4.8980 F       1  UNL1        0.0000
     22 F          -1.3002   -2.7894   -1.4323 F       1  UNL1        0.0000
     23 F           1.0085   -3.6582   -2.2702 F       1  UNL1        0.0000
     24 F           1.2207    0.2974   -0.0706 F       1  UNL1        0.0000
     25 F           2.8692   -1.6681    0.2203 F       1  UNL1        0.0000
@<TRIPOS>BOND
     1     1     3    1
     2     1     2    1
     3     2    24    1
     4     2     7    1
     5     2    25    1
     6     3    10    1
     7     3    11    1
     8     3     4    1
     9     4    12    1
    10     4     5    1
    11     4    13    1
    12     5    15    1
    13     5    14    1
    14     5     8    1
    15     6    20    1
    16     6     7    1
    17     6     9    1
    18     6    21    1
    19     7    22    1
    20     7    23    1
    21     8     9    1
    22     8    16    1
    23     8    17    1
    24     9    19    1
    25     9    18    1
@<TRIPOS>MOLECULE
S_SiF2_8_cyclic
 25 25 0 0 0
SMALL
GASTEIGER
****
Schrodinger Suite 2023-1.
@<TRIPOS>ATOM
      1 S           0.4314   -1.6079    2.0831 S.3     1  UNL1        0.0000
      2 SI         -1.0986   -0.5611    3.1413 Si      1  UNL1        0.0000
      3 SI         -0.7578   -3.3670    1.7355 Si      1  UNL1        0.0000
      4 SI         -2.3216   -3.3449   -0.1469 Si      1  UNL1        0.0000
      5 SI         -4.4802   -2.6350    0.5818 Si      1  UNL1        0.0000
      6 SI         -3.0860    2.3297    1.9835 Si      1  UNL1        0.0000
      7 SI         -1.0688    1.8621    3.1525 Si      1  UNL1        0.0000
      8 SI         -4.9629   -0.4105   -0.1962 Si      1  UNL1        0.0000
      9 SI         -3.0657    1.0435   -0.0317 Si      1  UNL1        0.0000
     10 F          -1.5587   -3.6809    3.1031 F       1  UNL1        0.0000
     11 F           0.2854   -4.5896    1.5635 F       1  UNL1        0.0000
     12 F          -2.4318   -4.8147   -0.8236 F       1  UNL1        0.0000
     13 F          -1.8247   -2.3607   -1.3358 F       1  UNL1        0.0000
     14 F          -5.6131   -3.6649    0.0502 F       1  UNL1        0.0000
     15 F          -4.5744   -2.7000    2.1980 F       1  UNL1        0.0000
     16 F          -6.1951    0.2223    0.6438 F       1  UNL1        0.0000
     17 F          -5.4679   -0.4735   -1.7344 F       1  UNL1        0.0000
     18 F          -1.7223    0.1404   -0.0208 F       1  UNL1        0.0000
     19 F          -2.9479    2.0065   -1.3285 F       1  UNL1        0.0000
     20 F          -4.3526    1.8851    2.8898 F       1  UNL1        0.0000
     21 F          -3.2544    3.9127    1.6805 F       1  UNL1        0.0000
     22 F           0.2128    2.4832    2.3770 F       1  UNL1        0.0000
     23 F          -1.0902    2.4811    4.6519 F       1  UNL1        0.0000
     24 F          -2.4663   -0.9809    2.3826 F       1  UNL1        0.0000
     25 F          -1.2058   -1.1647    4.6346 F       1  UNL1        0.0000
@<TRIPOS>BOND
     1     1     3    1
     2     1     2    1
     3     2    24    1
     4     2     7    1
     5     2    25    1
     6     3    10    1
     7     3    11    1
     8     3     4    1
     9     4    12    1
    10     4     5    1
    11     4    13    1
    12     5    15    1
    13     5    14    1
    14     5     8    1
    15     6    20    1
    16     6     7    1
    17     6     9    1
    18     6    21    1
    19     7    22    1
    20     7    23    1
    21     8     9    1
    22     8    16    1
    23     8    17    1
    24     9    19    1
    25     9    18    1
@<TRIPOS>MOLECULE
S_SiF2_8_cyclic
 25 25 0 0 0
SMALL
GASTEIGER
****
Schrodinger Suite 2023-1.
@<TRIPOS>ATOM
      1 S           0.4315   -1.6080    2.0830 S.3     1  UNL1        0.0000
      2 SI         -0.0276   -1.3244    0.0178 Si      1  UNL1        0.0000
      3 SI         -0.9017   -0.0697    2.7796 Si      1  UNL1        0.0000
      4 SI         -0.1154    2.2472    2.7212 Si      1  UNL1        0.0000
      5 SI         -0.7749    3.2912    0.6793 Si      1  UNL1        0.0000
      6 SI          2.1063    0.1938   -2.5878 Si      1  UNL1        0.0000
      7 SI          1.6262   -1.9357   -1.6447 Si      1  UNL1        0.0000
      8 SI          1.1113    3.5906   -0.7833 Si      1  UNL1        0.0000
      9 SI          2.5727    1.6921   -0.7841 Si      1  UNL1        0.0000
     10 F          -1.3019   -0.4715    4.2932 F       1  UNL1        0.0000
     11 F          -2.2694   -0.2006    1.9295 F       1  UNL1        0.0000
     12 F           1.4974    2.3431    2.8569 F       1  UNL1        0.0000
     13 F          -0.7032    3.0884    3.9771 F       1  UNL1        0.0000
     14 F          -1.9224    2.4124   -0.0530 F       1  UNL1        0.0000
     15 F          -1.4696    4.7229    0.9860 F       1  UNL1        0.0000
     16 F           1.9365    4.9119   -0.3379 F       1  UNL1        0.0000
     17 F           0.6079    3.8778   -2.2960 F       1  UNL1        0.0000
     18 F           4.1272    2.1460   -0.7996 F       1  UNL1        0.0000
     19 F           2.3584    0.8754    0.5970 F       1  UNL1        0.0000
     20 F           3.3368    0.1238   -3.6400 F       1  UNL1        0.0000
     21 F           0.8146    0.7268   -3.4068 F       1  UNL1        0.0000
     22 F           1.0451   -2.9641   -2.7568 F       1  UNL1        0.0000
     23 F           2.9566   -2.6018   -0.9996 F       1  UNL1        0.0000
     24 F          -1.4638   -1.9924   -0.2934 F       1  UNL1        0.0000
     25 F          -0.2296    0.2756   -0.1295 F       1  UNL1        0.0000
@<TRIPOS>BOND
     1     1     3    1
     2     1     2    1
     3     2    24    1
     4     2     7    1
     5     2    25    1
     6     3    10    1
     7     3    11    1
     8     3     4    1
     9     4    12    1
    10     4     5    1
    11     4    13    1
    12     5    15    1
    13     5    14    1
    14     5     8    1
    15     6    20    1
    16     6     7    1
    17     6     9    1
    18     6    21    1
    19     7    22    1
    20     7    23    1
    21     8     9    1
    22     8    16    1
    23     8    17    1
    24     9    19    1
    25     9    18    1
@<TRIPOS>MOLECULE
S_SiF2_8_cyclic
 25 25 0 0 0
SMALL
GASTEIGER
****
Schrodinger Suite 2023-1.
@<TRIPOS>ATOM
      1 S           0.4316   -1.6082    2.0832 S.3     1  UNL1        0.0000
      2 SI         -1.0753   -3.1125    2.2344 Si      1  UNL1        0.0000
      3 SI         -0.8752    0.0143    2.6207 Si      1  UNL1        0.0000
      4 SI         -2.2902    0.9789    0.8724 Si      1  UNL1        0.0000
      5 SI         -4.4270   -0.0831    0.8616 Si      1  UNL1        0.0000
      6 SI         -2.7164   -4.9574   -0.5136 Si      1  UNL1        0.0000
      7 SI         -0.8386   -5.1432    0.9334 Si      1  UNL1        0.0000
      8 SI         -4.6591   -1.5327   -1.0441 Si      1  UNL1        0.0000
      9 SI         -2.6605   -2.7762   -1.4909 Si      1  UNL1        0.0000
     10 F           0.0694    1.1632    3.2533 F       1  UNL1        0.0000
     11 F          -1.7973   -0.4990    3.8441 F       1  UNL1        0.0000
     12 F          -1.6256    0.8251   -0.5984 F       1  UNL1        0.0000
     13 F          -2.4767    2.5746    1.0952 F       1  UNL1        0.0000
     14 F          -4.6441   -0.9167    2.2339 F       1  UNL1        0.0000
     15 F          -5.6024    1.0328    0.8539 F       1  UNL1        0.0000
     16 F          -5.0555   -0.6542   -2.3465 F       1  UNL1        0.0000
     17 F          -5.8895   -2.5621   -0.8189 F       1  UNL1        0.0000
     18 F          -2.3656   -2.8648   -3.0808 F       1  UNL1        0.0000
     19 F          -1.4047   -1.9842   -0.8459 F       1  UNL1        0.0000
     20 F          -2.7239   -6.1187   -1.6439 F       1  UNL1        0.0000
     21 F          -4.0798   -5.1252    0.3445 F       1  UNL1        0.0000
     22 F          -0.9173   -6.4830    1.8449 F       1  UNL1        0.0000
     23 F           0.5453   -5.1972    0.0899 F       1  UNL1        0.0000
     24 F          -1.3404   -3.4295    3.7949 F       1  UNL1        0.0000
     25 F          -2.4161   -2.3902    1.6837 F       1  UNL1        0.0000
@<TRIPOS>BOND
     1     1     3    1
     2     1     2    1
     3     2    24    1
     4     2     7    1
     5     2    25    1
     6     3    10    1
     7     3    11    1
     8     3     4    1
     9     4    12    1
    10     4     5    1
    11     4    13    1
    12     5    15    1
    13     5    14    1
    14     5     8    1
    15     6    20    1
    16     6     7    1
    17     6     9    1
    18     6    21    1
    19     7    22    1
    20     7    23    1
    21     8     9    1
    22     8    16    1
    23     8    17    1
    24     9    19    1
    25     9    18    1
@<TRIPOS>MOLECULE
S_SiF2_8_cyclic
 25 25 0 0 0
SMALL
GASTEIGER
****
Schrodinger Suite 2023-1.
@<TRIPOS>ATOM
      1 S           0.4316   -1.6081    2.0833 S.3     1  UNL1        0.0000
      2 SI         -1.3413   -2.1994    1.0173 Si      1  UNL1        0.0000
      3 SI         -0.3666   -2.0380    4.0157 Si      1  UNL1        0.0000
      4 SI          0.5094   -0.8477    5.9363 Si      1  UNL1        0.0000
      5 SI         -1.4188    0.3663    6.6167 Si      1  UNL1        0.0000
      6 SI         -4.7301   -0.9021    2.6143 Si      1  UNL1        0.0000
      7 SI         -3.1689   -0.5817    0.8384 Si      1  UNL1        0.0000
      8 SI         -2.2898    1.4767    4.6869 Si      1  UNL1        0.0000
      9 SI         -4.5624    0.8642    4.2387 Si      1  UNL1        0.0000
     10 F          -0.3485   -3.6361    4.2433 F       1  UNL1        0.0000
     11 F          -1.9254   -1.6126    3.9069 F       1  UNL1        0.0000
     12 F           1.7270    0.1546    5.5587 F       1  UNL1        0.0000
     13 F           1.0310   -1.8442    7.1054 F       1  UNL1        0.0000
     14 F          -2.5310   -0.6617    7.1909 F       1  UNL1        0.0000
     15 F          -1.0834    1.4127    7.8077 F       1  UNL1        0.0000
     16 F          -1.3790    1.0426    3.4211 F       1  UNL1        0.0000
     17 F          -2.1294    3.0823    4.8247 F       1  UNL1        0.0000
     18 F          -5.2793    0.4229    5.6228 F       1  UNL1        0.0000
     19 F          -5.3816    2.1602    3.7149 F       1  UNL1        0.0000
     20 F          -6.2379   -0.9687    2.0236 F       1  UNL1        0.0000
     21 F          -4.4878   -2.3409    3.3189 F       1  UNL1        0.0000
     22 F          -3.9293   -0.7246   -0.5871 F       1  UNL1        0.0000
     23 F          -2.6318    0.9473    0.8876 F       1  UNL1        0.0000
     24 F          -0.8539   -2.6370   -0.4603 F       1  UNL1        0.0000
     25 F          -1.8831   -3.5570    1.7055 F       1  UNL1        0.0000
@<TRIPOS>BOND
     1     1     3    1
     2     1     2    1
     3     2    24    1
     4     2     7    1
     5     2    25    1
     6     3    10    1
     7     3    11    1
     8     3     4    1
     9     4    12    1
    10     4     5    1
    11     4    13    1
    12     5    15    1
    13     5    14    1
    14     5     8    1
    15     6    20    1
    16     6     7    1
    17     6     9    1
    18     6    21    1
    19     7    22    1
    20     7    23    1
    21     8     9    1
    22     8    16    1
    23     8    17    1
    24     9    19    1
    25     9    18    1
@<TRIPOS>MOLECULE
S_SiF2_8_cyclic
 25 25 0 0 0
SMALL
GASTEIGER
****
Schrodinger Suite 2023-1.
@<TRIPOS>ATOM
      1 S           0.4314   -1.6081    2.0832 S.3     1  UNL1        0.0000
      2 SI          1.5985   -3.1284    3.0225 Si      1  UNL1        0.0000
      3 SI         -1.2768   -1.8705    3.3645 Si      1  UNL1        0.0000
      4 SI         -1.2535   -0.7737    5.5522 Si      1  UNL1        0.0000
      5 SI         -0.4014   -2.2620    7.2114 Si      1  UNL1        0.0000
      6 SI          4.5410   -2.6883    5.2140 Si      1  UNL1        0.0000
      7 SI          4.0151   -2.9840    2.9138 Si      1  UNL1        0.0000
      8 SI          1.8124   -1.6145    7.8945 Si      1  UNL1        0.0000
      9 SI          3.1680   -0.9167    6.0464 Si      1  UNL1        0.0000
     10 F          -1.4914   -3.4603    3.5564 F       1  UNL1        0.0000
     11 F          -2.5577   -1.3680    2.5164 F       1  UNL1        0.0000
     12 F          -2.7432   -0.2875    5.9705 F       1  UNL1        0.0000
     13 F          -0.3484    0.5715    5.5460 F       1  UNL1        0.0000
     14 F          -1.3906   -2.2886    8.4950 F       1  UNL1        0.0000
     15 F          -0.3963   -3.7817    6.6496 F       1  UNL1        0.0000
     16 F           2.5439   -2.8404    8.6603 F       1  UNL1        0.0000
     17 F           1.7144   -0.4157    8.9801 F       1  UNL1        0.0000
     18 F           2.1950   -0.4453    4.8416 F       1  UNL1        0.0000
     19 F           4.0651    0.3760    6.4298 F       1  UNL1        0.0000
     20 F           4.2082   -4.0503    6.0249 F       1  UNL1        0.0000
     21 F           6.1159   -2.3787    5.4373 F       1  UNL1        0.0000
     22 F           4.5351   -1.7277    2.0300 F       1  UNL1        0.0000
     23 F           4.6957   -4.3289    2.3138 F       1  UNL1        0.0000
     24 F           1.2199   -3.0089    4.5925 F       1  UNL1        0.0000
     25 F           1.0630   -4.5716    2.5365 F       1  UNL1        0.0000
@<TRIPOS>BOND
     1     1     3    1
     2     1     2    1
     3     2    24    1
     4     2     7    1
     5     2    25    1
     6     3    10    1
     7     3    11    1
     8     3     4    1
     9     4    12    1
    10     4     5    1
    11     4    13    1
    12     5    15    1
    13     5    14    1
    14     5     8    1
    15     6    20    1
    16     6     7    1
    17     6     9    1
    18     6    21    1
    19     7    22    1
    20     7    23    1
    21     8     9    1
    22     8    16    1
    23     8    17    1
    24     9    19    1
    25     9    18    1
@<TRIPOS>MOLECULE
S_SiF2_8_cyclic
 25 25 0 0 0
SMALL
GASTEIGER
****
Schrodinger Suite 2023-1.
@<TRIPOS>ATOM
      1 S           0.4316   -1.6081    2.0834 S.3     1  UNL1        0.0000
      2 SI         -0.5466    0.1192    1.2791 Si      1  UNL1        0.0000
      3 SI         -0.0344   -2.9041    0.4327 Si      1  UNL1        0.0000
      4 SI         -2.2154   -4.0032    0.5092 Si      1  UNL1        0.0000
      5 SI         -3.8023   -2.4889    1.4528 Si      1  UNL1        0.0000
      6 SI         -3.9153    1.6770    2.4609 Si      1  UNL1        0.0000
      7 SI         -1.5466    1.7087    2.8352 Si      1  UNL1        0.0000
      8 SI         -4.8037   -1.1208   -0.2362 Si      1  UNL1        0.0000
      9 SI         -4.3743    1.2192    0.1579 Si      1  UNL1        0.0000
     10 F           1.1432   -4.0087    0.3594 F       1  UNL1        0.0000
     11 F           0.1071   -2.0332   -0.9217 F       1  UNL1        0.0000
     12 F          -2.1544   -5.3594    1.3969 F       1  UNL1        0.0000
     13 F          -2.7017   -4.4623   -0.9679 F       1  UNL1        0.0000
     14 F          -4.9375   -3.2727    2.3018 F       1  UNL1        0.0000
     15 F          -3.0515   -1.5103    2.5064 F       1  UNL1        0.0000
     16 F          -6.3984   -1.3974   -0.3050 F       1  UNL1        0.0000
     17 F          -4.2086   -1.5540   -1.6791 F       1  UNL1        0.0000
     18 F          -3.0864    1.7018   -0.6993 F       1  UNL1        0.0000
     19 F          -5.6140    2.1210   -0.3660 F       1  UNL1        0.0000
     20 F          -4.6482    0.5587    3.3755 F       1  UNL1        0.0000
     21 F          -4.5733    3.0935    2.8929 F       1  UNL1        0.0000
     22 F          -0.9689    3.2035    2.5852 F       1  UNL1        0.0000
     23 F          -1.2084    1.3434    4.3787 F       1  UNL1        0.0000
     24 F           0.4667    0.8446    0.2532 F       1  UNL1        0.0000
     25 F          -1.7486   -0.4773    0.3728 F       1  UNL1        0.0000
@<TRIPOS>BOND
     1     1     3    1
     2     1     2    1
     3     2    24    1
     4     2     7    1
     5     2    25    1
     6     3    10    1
     7     3    11    1
     8     3     4    1
     9     4    12    1
    10     4     5    1
    11     4    13    1
    12     5    15    1
    13     5    14    1
    14     5     8    1
    15     6    20    1
    16     6     7    1
    17     6     9    1
    18     6    21    1
    19     7    22    1
    20     7    23    1
    21     8     9    1
    22     8    16    1
    23     8    17    1
    24     9    19    1
    25     9    18    1
@<TRIPOS>MOLECULE
S_SiF2_8_cyclic
 25 25 0 0 0
SMALL
GASTEIGER
****
Schrodinger Suite 2023-1.
@<TRIPOS>ATOM
      1 S           0.4314   -1.6081    2.0831 S.3     1  UNL1        0.0000
      2 SI          0.3897   -1.2258    4.1981 Si      1  UNL1        0.0000
      3 SI          1.9853   -0.2008    1.6447 Si      1  UNL1        0.0000
      4 SI          3.4957   -0.6893   -0.2069 Si      1  UNL1        0.0000
      5 SI          5.6844   -0.9993    0.7231 Si      1  UNL1        0.0000
      6 SI          4.0358   -2.6766    4.3090 Si      1  UNL1        0.0000
      7 SI          2.0054   -2.4657    5.5481 Si      1  UNL1        0.0000
      8 SI          5.9545    0.3811    2.6584 Si      1  UNL1        0.0000
      9 SI          5.4868   -0.8139    4.7000 Si      1  UNL1        0.0000
     10 F           2.8844   -0.1532    2.9905 F       1  UNL1        0.0000
     11 F           1.3193    1.2626    1.5021 F       1  UNL1        0.0000
     12 F           3.5176    0.5330   -1.2726 F       1  UNL1        0.0000
     13 F           3.0364   -2.0059   -1.0352 F       1  UNL1        0.0000
     14 F           5.9422   -2.5436    1.1387 F       1  UNL1        0.0000
     15 F           6.8198   -0.6485   -0.3787 F       1  UNL1        0.0000
     16 F           4.9432    1.6380    2.5038 F       1  UNL1        0.0000
     17 F           7.4436    1.0178    2.7006 F       1  UNL1        0.0000
     18 F           6.8652   -1.3155    5.3876 F       1  UNL1        0.0000
     19 F           4.7848    0.1790    5.7702 F       1  UNL1        0.0000
     20 F           4.7914   -4.0701    4.6421 F       1  UNL1        0.0000
     21 F           3.6966   -2.7195    2.7234 F       1  UNL1        0.0000
     22 F           1.4394   -3.9369    5.9303 F       1  UNL1        0.0000
     23 F           2.2953   -1.7223    6.9596 F       1  UNL1        0.0000
     24 F           0.5884    0.3647    4.4068 F       1  UNL1        0.0000
     25 F          -1.1138   -1.5414    4.7002 F       1  UNL1        0.0000
@<TRIPOS>BOND
     1     1     3    1
     2     1     2    1
     3     2    24    1
     4     2     7    1
     5     2    25    1
     6     3    10    1
     7     3    11    1
     8     3     4    1
     9     4    12    1
    10     4     5    1
    11     4    13    1
    12     5    15    1
    13     5    14    1
    14     5     8    1
    15     6    20    1
    16     6     7    1
    17     6     9    1
    18     6    21    1
    19     7    22    1
    20     7    23    1
    21     8     9    1
    22     8    16    1
    23     8    17    1
    24     9    19    1
    25     9    18    1
@<TRIPOS>MOLECULE
S_SiF2_8_cyclic
 25 25 0 0 0
SMALL
GASTEIGER
****
Schrodinger Suite 2023-1.
@<TRIPOS>ATOM
      1 S           0.4314   -1.6082    2.0834 S.3     1  UNL1        0.0000
      2 SI          0.0383   -2.6013    0.2202 Si      1  UNL1        0.0000
      3 SI         -1.1894   -0.2278    1.9043 Si      1  UNL1        0.0000
      4 SI         -1.1667    1.8320    3.1923 Si      1  UNL1        0.0000
      5 SI         -1.4047    3.5876    1.5720 Si      1  UNL1        0.0000
      6 SI          2.2147    0.1840   -1.5925 Si      1  UNL1        0.0000
      7 SI          0.4071   -1.3610   -1.8583 Si      1  UNL1        0.0000
      8 SI         -0.2002    3.1739   -0.4790 Si      1  UNL1        0.0000
      9 SI          1.7759    1.9360   -0.0014 Si      1  UNL1        0.0000
     10 F          -2.5905   -1.0186    2.0284 F       1  UNL1        0.0000
     11 F          -1.0674    0.2292    0.3604 F       1  UNL1        0.0000
     12 F           0.2093    2.0207    4.0290 F       1  UNL1        0.0000
     13 F          -2.3747    1.8758    4.2740 F       1  UNL1        0.0000
     14 F          -2.9774    3.7827    1.2335 F       1  UNL1        0.0000
     15 F          -0.9207    4.9951    2.2129 F       1  UNL1        0.0000
     16 F           0.1601    4.5578   -1.2401 F       1  UNL1        0.0000
     17 F          -1.1171    2.3270   -1.5100 F       1  UNL1        0.0000
     18 F           3.0418    2.9371    0.1335 F       1  UNL1        0.0000
     19 F           1.5602    1.3162    1.4762 F       1  UNL1        0.0000
     20 F           3.5475   -0.6278   -1.1574 F       1  UNL1        0.0000
     21 F           2.5683    0.8551   -3.0246 F       1  UNL1        0.0000
     22 F          -0.9301   -0.5600   -2.3048 F       1  UNL1        0.0000
     23 F           0.7193   -2.3756   -3.0847 F       1  UNL1        0.0000
     24 F           0.9549   -3.9321    0.2223 F       1  UNL1        0.0000
     25 F          -1.4904   -3.1194    0.2902 F       1  UNL1        0.0000
@<TRIPOS>BOND
     1     1     3    1
     2     1     2    1
     3     2    24    1
     4     2     7    1
     5     2    25    1
     6     3    10    1
     7     3    11    1
     8     3     4    1
     9     4    12    1
    10     4     5    1
    11     4    13    1
    12     5    15    1
    13     5    14    1
    14     5     8    1
    15     6    20    1
    16     6     7    1
    17     6     9    1
    18     6    21    1
    19     7    22    1
    20     7    23    1
    21     8     9    1
    22     8    16    1
    23     8    17    1
    24     9    19    1
    25     9    18    1
@<TRIPOS>MOLECULE
S_SiF2_8_cyclic
 25 25 0 0 0
SMALL
GASTEIGER
****
Schrodinger Suite 2023-1.
@<TRIPOS>ATOM
      1 S           0.4318   -1.6083    2.0832 S.3     1  UNL1        0.0000
      2 SI          1.0685    0.4252    2.3508 Si      1  UNL1        0.0000
      3 SI         -1.4225   -1.1019    1.1507 Si      1  UNL1        0.0000
      4 SI         -3.2342   -2.7202    1.1120 Si      1  UNL1        0.0000
      5 SI         -5.1029   -1.5929    2.1126 Si      1  UNL1        0.0000
      6 SI         -0.9746    0.4982    5.7574 Si      1  UNL1        0.0000
      7 SI         -0.1538    1.8261    3.9441 Si      1  UNL1        0.0000
      8 SI         -4.4911   -0.1804    3.9724 Si      1  UNL1        0.0000
      9 SI         -2.6258   -1.1281    5.1076 Si      1  UNL1        0.0000
     10 F          -1.1401   -0.4556   -0.3006 F       1  UNL1        0.0000
     11 F          -1.9451    0.1063    2.0858 F       1  UNL1        0.0000
     12 F          -2.8771   -4.0655    1.9437 F       1  UNL1        0.0000
     13 F          -3.5849   -3.1913   -0.4000 F       1  UNL1        0.0000
     14 F          -5.8418   -0.6943    0.9845 F       1  UNL1        0.0000
     15 F          -6.2054   -2.6789    2.5935 F       1  UNL1        0.0000
     16 F          -5.7353    0.0277    4.9885 F       1  UNL1        0.0000
     17 F          -4.0940    1.2993    3.4492 F       1  UNL1        0.0000
     18 F          -3.1290   -1.9943    6.3801 F       1  UNL1        0.0000
     19 F          -1.9870   -2.2032    4.0828 F       1  UNL1        0.0000
     20 F           0.2715   -0.2460    6.4772 F       1  UNL1        0.0000
     21 F          -1.6112    1.4649    6.8915 F       1  UNL1        0.0000
     22 F          -1.3922    2.5848    3.2232 F       1  UNL1        0.0000
     23 F           0.7951    3.0135    4.5103 F       1  UNL1        0.0000
     24 F           2.6241    0.3523    2.7819 F       1  UNL1        0.0000
     25 F           1.0489    1.1083    0.8868 F       1  UNL1        0.0000
@<TRIPOS>BOND
     1     1     3    1
     2     1     2    1
     3     2    24    1
     4     2     7    1
     5     2    25    1
     6     3    10    1
     7     3    11    1
     8     3     4    1
     9     4    12    1
    10     4     5    1
    11     4    13    1
    12     5    15    1
    13     5    14    1
    14     5     8    1
    15     6    20    1
    16     6     7    1
    17     6     9    1
    18     6    21    1
    19     7    22    1
    20     7    23    1
    21     8     9    1
    22     8    16    1
    23     8    17    1
    24     9    19    1
    25     9    18    1
@<TRIPOS>MOLECULE
S_SiF2_8_cyclic
 25 25 0 0 0
SMALL
GASTEIGER
****
Schrodinger Suite 2023-1.
@<TRIPOS>ATOM
      1 S           0.4316   -1.6081    2.0834 S.3     1  UNL1        0.0000
      2 SI         -0.1620   -1.7179    0.0339 Si      1  UNL1        0.0000
      3 SI         -1.2276   -0.3889    2.6938 Si      1  UNL1        0.0000
      4 SI         -1.3399    1.9162    1.8760 Si      1  UNL1        0.0000
      5 SI          0.8635    2.8072    1.6004 Si      1  UNL1        0.0000
      6 SI          1.3892   -0.4904   -3.2526 Si      1  UNL1        0.0000
      7 SI          1.4758   -2.2908   -1.6666 Si      1  UNL1        0.0000
      8 SI          2.1568    1.7040   -0.1038 Si      1  UNL1        0.0000
      9 SI          1.0910    1.6771   -2.2320 Si      1  UNL1        0.0000
     10 F          -1.2080   -0.3861    4.3097 F       1  UNL1        0.0000
     11 F          -2.5653   -1.1904    2.2713 F       1  UNL1        0.0000
     12 F          -2.1917    2.8464    2.8959 F       1  UNL1        0.0000
     13 F          -2.1379    1.9969    0.4669 F       1  UNL1        0.0000
     14 F           0.7687    4.3855    1.2450 F       1  UNL1        0.0000
     15 F           1.6478    2.7319    3.0159 F       1  UNL1        0.0000
     16 F           2.3990    0.1538    0.2865 F       1  UNL1        0.0000
     17 F           3.6360    2.3513   -0.2293 F       1  UNL1        0.0000
     18 F          -0.4841    1.9964   -2.0374 F       1  UNL1        0.0000
     19 F           1.6694    2.8582   -3.1778 F       1  UNL1        0.0000
     20 F           2.7365   -0.4873   -4.1531 F       1  UNL1        0.0000
     21 F           0.1740   -0.7600   -4.2902 F       1  UNL1        0.0000
     22 F           1.1299   -3.7064   -2.3792 F       1  UNL1        0.0000
     23 F           2.9720   -2.4335   -1.0583 F       1  UNL1        0.0000
     24 F          -1.5144   -2.5891   -0.0922 F       1  UNL1        0.0000
     25 F          -0.5831   -0.1894   -0.2722 F       1  UNL1        0.0000
@<TRIPOS>BOND
     1     1     3    1
     2     1     2    1
     3     2    24    1
     4     2     7    1
     5     2    25    1
     6     3    10    1
     7     3    11    1
     8     3     4    1
     9     4    12    1
    10     4     5    1
    11     4    13    1
    12     5    15    1
    13     5    14    1
    14     5     8    1
    15     6    20    1
    16     6     7    1
    17     6     9    1
    18     6    21    1
    19     7    22    1
    20     7    23    1
    21     8     9    1
    22     8    16    1
    23     8    17    1
    24     9    19    1
    25     9    18    1
@<TRIPOS>MOLECULE
S_SiF2_8_cyclic
 25 25 0 0 0
SMALL
GASTEIGER
****
Schrodinger Suite 2023-1.
@<TRIPOS>ATOM
      1 S           0.4315   -1.6081    2.0832 S.3     1  UNL1        0.0000
      2 SI          1.6522   -3.0208    1.0219 Si      1  UNL1        0.0000
      3 SI          1.9839   -0.9806    3.4105 Si      1  UNL1        0.0000
      4 SI          1.8012    1.1540    4.5561 Si      1  UNL1        0.0000
      5 SI          3.8060    2.3456    3.9859 Si      1  UNL1        0.0000
      6 SI          2.8668   -0.0461   -1.3149 Si      1  UNL1        0.0000
      7 SI          3.4671   -2.1660   -0.3818 Si      1  UNL1        0.0000
      8 SI          4.5094    2.0074    1.7013 Si      1  UNL1        0.0000
      9 SI          2.5953    1.6992    0.3203 Si      1  UNL1        0.0000
     10 F           3.2370   -0.8229    2.4045 F       1  UNL1        0.0000
     11 F           2.3618   -2.1887    4.4112 F       1  UNL1        0.0000
     12 F           1.6787    0.9636    6.1624 F       1  UNL1        0.0000
     13 F           0.4952    1.9942    4.0898 F       1  UNL1        0.0000
     14 F           3.6009    3.9289    4.2636 F       1  UNL1        0.0000
     15 F           4.9968    1.8807    4.9820 F       1  UNL1        0.0000
     16 F           5.4558    0.6986    1.5911 F       1  UNL1        0.0000
     17 F           5.4053    3.2484    1.1709 F       1  UNL1        0.0000
     18 F           1.3794    1.3466    1.3260 F       1  UNL1        0.0000
     19 F           2.1815    3.0999   -0.3793 F       1  UNL1        0.0000
     20 F           3.9929    0.4122   -2.3864 F       1  UNL1        0.0000
     21 F           1.5009   -0.2101   -2.1706 F       1  UNL1        0.0000
     22 F           3.8186   -3.2153   -1.5677 F       1  UNL1        0.0000
     23 F           4.8401   -2.0157    0.4676 F       1  UNL1        0.0000
     24 F           2.2429   -4.0388    2.1288 F       1  UNL1        0.0000
     25 F           0.6381   -3.8946    0.1168 F       1  UNL1        0.0000
@<TRIPOS>BOND
     1     1     3    1
     2     1     2    1
     3     2    24    1
     4     2     7    1
     5     2    25    1
     6     3    10    1
     7     3    11    1
     8     3     4    1
     9     4    12    1
    10     4     5    1
    11     4    13    1
    12     5    15    1
    13     5    14    1
    14     5     8    1
    15     6    20    1
    16     6     7    1
    17     6     9    1
    18     6    21    1
    19     7    22    1
    20     7    23    1
    21     8     9    1
    22     8    16    1
    23     8    17    1
    24     9    19    1
    25     9    18    1
@<TRIPOS>MOLECULE
S_SiF2_8_cyclic
 25 25 0 0 0
SMALL
GASTEIGER
****
Schrodinger Suite 2023-1.
@<TRIPOS>ATOM
      1 S           0.4317   -1.6082    2.0831 S.3     1  UNL1        0.0000
      2 SI          0.4849   -3.4506    3.1854 Si      1  UNL1        0.0000
      3 SI         -1.4579   -0.9815    2.8587 Si      1  UNL1        0.0000
      4 SI         -2.7617    0.6812    1.6596 Si      1  UNL1        0.0000
      5 SI         -4.8991   -0.3470    1.2872 Si      1  UNL1        0.0000
      6 SI         -1.6182   -5.1311    0.2632 Si      1  UNL1        0.0000
      7 SI         -1.1248   -5.2014    2.6034 Si      1  UNL1        0.0000
      8 SI         -4.7569   -2.6990    0.7619 Si      1  UNL1        0.0000
      9 SI         -2.7448   -3.1227   -0.4373 Si      1  UNL1        0.0000
     10 F          -1.3120   -0.6380    4.4285 F       1  UNL1        0.0000
     11 F          -2.3193   -2.3448    2.7761 F       1  UNL1        0.0000
     12 F          -2.0826    1.0954    0.2467 F       1  UNL1        0.0000
     13 F          -2.9196    2.0503    2.5152 F       1  UNL1        0.0000
     14 F          -5.8147   -0.1533    2.6102 F       1  UNL1        0.0000
     15 F          -5.6821    0.4296    0.0998 F       1  UNL1        0.0000
     16 F          -6.0451   -3.1919   -0.0876 F       1  UNL1        0.0000
     17 F          -4.7575   -3.5806    2.1196 F       1  UNL1        0.0000
     18 F          -3.0381   -3.1392   -2.0299 F       1  UNL1        0.0000
     19 F          -1.8039   -1.8316   -0.1881 F       1  UNL1        0.0000
     20 F          -0.2431   -5.3068   -0.5751 F       1  UNL1        0.0000
     21 F          -2.5313   -6.4090   -0.1362 F       1  UNL1        0.0000
     22 F          -2.4966   -5.0379    3.4522 F       1  UNL1        0.0000
     23 F          -0.5524   -6.6646    3.0066 F       1  UNL1        0.0000
     24 F           1.9865   -4.0247    3.0217 F       1  UNL1        0.0000
     25 F           0.3319   -3.0563    4.7447 F       1  UNL1        0.0000
@<TRIPOS>BOND
     1     1     3    1
     2     1     2    1
     3     2    24    1
     4     2     7    1
     5     2    25    1
     6     3    10    1
     7     3    11    1
     8     3     4    1
     9     4    12    1
    10     4     5    1
    11     4    13    1
    12     5    15    1
    13     5    14    1
    14     5     8    1
    15     6    20    1
    16     6     7    1
    17     6     9    1
    18     6    21    1
    19     7    22    1
    20     7    23    1
    21     8     9    1
    22     8    16    1
    23     8    17    1
    24     9    19    1
    25     9    18    1
@<TRIPOS>MOLECULE
S_SiF2_8_cyclic
 25 25 0 0 0
SMALL
GASTEIGER
****
Schrodinger Suite 2023-1.
@<TRIPOS>ATOM
      1 S           0.4315   -1.6082    2.0832 S.3     1  UNL1        0.0000
      2 SI          0.2492   -1.6749    4.2220 Si      1  UNL1        0.0000
      3 SI         -0.0031    0.4777    1.9241 Si      1  UNL1        0.0000
      4 SI          0.6720    1.7018   -0.0630 Si      1  UNL1        0.0000
      5 SI          2.0033    3.5283    0.7470 Si      1  UNL1        0.0000
      6 SI          4.0520   -0.5519    4.4696 Si      1  UNL1        0.0000
      7 SI          1.9275   -0.5075    5.5694 Si      1  UNL1        0.0000
      8 SI          3.4207    2.9341    2.6088 Si      1  UNL1        0.0000
      9 SI          4.1017    0.6635    2.3926 Si      1  UNL1        0.0000
     10 F           0.8785    1.0932    3.1287 F       1  UNL1        0.0000
     11 F          -1.5456    0.7410    2.3178 F       1  UNL1        0.0000
     12 F          -0.6093    2.2450   -0.8963 F       1  UNL1        0.0000
     13 F           1.5347    0.7872   -1.0869 F       1  UNL1        0.0000
     14 F           2.9086    4.1238   -0.4579 F       1  UNL1        0.0000
     15 F           1.0223    4.7389    1.1921 F       1  UNL1        0.0000
     16 F           2.6220    3.1149    4.0053 F       1  UNL1        0.0000
     17 F           4.7084    3.9122    2.7046 F       1  UNL1        0.0000
     18 F           3.0853   -0.0008    1.3250 F       1  UNL1        0.0000
     19 F           5.5637    0.5835    1.7005 F       1  UNL1        0.0000
     20 F           5.1855    0.0537    5.4568 F       1  UNL1        0.0000
     21 F           4.4846   -2.0918    4.2120 F       1  UNL1        0.0000
     22 F           2.0498   -1.1780    7.0413 F       1  UNL1        0.0000
     23 F           1.4900    1.0297    5.8424 F       1  UNL1        0.0000
     24 F          -1.2261   -1.1180    4.5739 F       1  UNL1        0.0000
     25 F           0.2350   -3.2411    4.6193 F       1  UNL1        0.0000
@<TRIPOS>BOND
     1     1     3    1
     2     1     2    1
     3     2    24    1
     4     2     7    1
     5     2    25    1
     6     3    10    1
     7     3    11    1
     8     3     4    1
     9     4    12    1
    10     4     5    1
    11     4    13    1
    12     5    15    1
    13     5    14    1
    14     5     8    1
    15     6    20    1
    16     6     7    1
    17     6     9    1
    18     6    21    1
    19     7    22    1
    20     7    23    1
    21     8     9    1
    22     8    16    1
    23     8    17    1
    24     9    19    1
    25     9    18    1
@<TRIPOS>MOLECULE
S_SiF2_8_cyclic
 25 25 0 0 0
SMALL
GASTEIGER
****
Schrodinger Suite 2023-1.
@<TRIPOS>ATOM
      1 S           0.4316   -1.6080    2.0832 S.3     1  UNL1        0.0000
      2 SI         -0.5840   -3.3235    2.8516 Si      1  UNL1        0.0000
      3 SI         -0.9803   -0.1897    2.8625 Si      1  UNL1        0.0000
      4 SI         -3.2362   -0.1508    1.9113 Si      1  UNL1        0.0000
      5 SI         -3.1700   -0.7391   -0.4070 Si      1  UNL1        0.0000
      6 SI         -2.3193   -6.3345    1.2270 Si      1  UNL1        0.0000
      7 SI         -0.1612   -5.5100    1.8804 Si      1  UNL1        0.0000
      8 SI         -2.4598   -3.0015   -0.8202 Si      1  UNL1        0.0000
      9 SI         -3.7683   -4.6276    0.3243 Si      1  UNL1        0.0000
     10 F          -0.2965    1.2635    2.6844 F       1  UNL1        0.0000
     11 F          -1.0573   -0.4478    4.4556 F       1  UNL1        0.0000
     12 F          -3.9110    1.3129    2.0938 F       1  UNL1        0.0000
     13 F          -4.2201   -1.1689    2.7016 F       1  UNL1        0.0000
     14 F          -4.6365   -0.5237   -1.0623 F       1  UNL1        0.0000
     15 F          -2.1944    0.2912   -1.1887 F       1  UNL1        0.0000
     16 F          -0.9416   -3.2191   -0.3085 F       1  UNL1        0.0000
     17 F          -2.4290   -3.3267   -2.4064 F       1  UNL1        0.0000
     18 F          -4.5914   -3.9005    1.5137 F       1  UNL1        0.0000
     19 F          -4.8843   -5.2635   -0.6628 F       1  UNL1        0.0000
     20 F          -2.1459   -7.5290    0.1457 F       1  UNL1        0.0000
     21 F          -3.0357   -7.0131    2.5125 F       1  UNL1        0.0000
     22 F           0.5430   -6.5121    2.9439 F       1  UNL1        0.0000
     23 F           0.8247   -5.4335    0.5954 F       1  UNL1        0.0000
     24 F          -0.4874   -3.3336    4.4623 F       1  UNL1        0.0000
     25 F          -2.1224   -2.9854    2.4966 F       1  UNL1        0.0000
@<TRIPOS>BOND
     1     1     3    1
     2     1     2    1
     3     2    24    1
     4     2     7    1
     5     2    25    1
     6     3    10    1
     7     3    11    1
     8     3     4    1
     9     4    12    1
    10     4     5    1
    11     4    13    1
    12     5    15    1
    13     5    14    1
    14     5     8    1
    15     6    20    1
    16     6     7    1
    17     6     9    1
    18     6    21    1
    19     7    22    1
    20     7    23    1
    21     8     9    1
    22     8    16    1
    23     8    17    1
    24     9    19    1
    25     9    18    1
@<TRIPOS>MOLECULE
S_SiF2_8_cyclic
 25 25 0 0 0
SMALL
GASTEIGER
****
Schrodinger Suite 2023-1.
@<TRIPOS>ATOM
      1 S           0.4315   -1.6081    2.0832 S.3     1  UNL1        0.0000
      2 SI          0.4826   -0.9445    0.0414 Si      1  UNL1        0.0000
      3 SI         -0.4687   -3.4951    1.6433 Si      1  UNL1        0.0000
      4 SI         -0.2836   -5.3199    3.2366 Si      1  UNL1        0.0000
      5 SI          0.6834   -7.1370    2.0007 Si      1  UNL1        0.0000
      6 SI          3.9468   -2.8450   -0.3726 Si      1  UNL1        0.0000
      7 SI          1.9859   -2.0887   -1.5162 Si      1  UNL1        0.0000
      8 SI          2.3757   -6.4374    0.4275 Si      1  UNL1        0.0000
      9 SI          3.5184   -4.5346    1.2875 Si      1  UNL1        0.0000
     10 F           0.3700   -3.9689    0.3475 F       1  UNL1        0.0000
     11 F          -1.9840   -3.2675    1.1377 F       1  UNL1        0.0000
     12 F          -1.7301   -5.7368    3.8409 F       1  UNL1        0.0000
     13 F           0.6537   -4.9392    4.5037 F       1  UNL1        0.0000
     14 F           1.3094   -8.2254    3.0251 F       1  UNL1        0.0000
     15 F          -0.4922   -7.9170    1.2035 F       1  UNL1        0.0000
     16 F           1.7001   -6.0504   -0.9919 F       1  UNL1        0.0000
     17 F           3.4173   -7.6368    0.1104 F       1  UNL1        0.0000
     18 F           2.5733   -3.9470    2.4604 F       1  UNL1        0.0000
     19 F           4.8852   -4.9919    2.0260 F       1  UNL1        0.0000
     20 F           5.0102   -3.4269   -1.4481 F       1  UNL1        0.0000
     21 F           4.6825   -1.5766    0.3162 F       1  UNL1        0.0000
     22 F           2.4001   -1.1075   -2.7397 F       1  UNL1        0.0000
     23 F           1.2477   -3.3494   -2.2194 F       1  UNL1        0.0000
     24 F          -1.0368   -1.0185   -0.5029 F       1  UNL1        0.0000
     25 F           0.8559    0.6270    0.0927 F       1  UNL1        0.0000
@<TRIPOS>BOND
     1     1     3    1
     2     1     2    1
     3     2    24    1
     4     2     7    1
     5     2    25    1
     6     3    10    1
     7     3    11    1
     8     3     4    1
     9     4    12    1
    10     4     5    1
    11     4    13    1
    12     5    15    1
    13     5    14    1
    14     5     8    1
    15     6    20    1
    16     6     7    1
    17     6     9    1
    18     6    21    1
    19     7    22    1
    20     7    23    1
    21     8     9    1
    22     8    16    1
    23     8    17    1
    24     9    19    1
    25     9    18    1
@<TRIPOS>MOLECULE
S_SiF2_8_cyclic
 25 25 0 0 0
SMALL
GASTEIGER
****
Schrodinger Suite 2023-1.
@<TRIPOS>ATOM
      1 S           0.4317   -1.6083    2.0834 S.3     1  UNL1        0.0000
      2 SI          0.6094   -3.7222    1.7492 Si      1  UNL1        0.0000
      3 SI          1.6909   -1.0548    0.4485 Si      1  UNL1        0.0000
      4 SI          1.5493    1.1870   -0.4769 Si      1  UNL1        0.0000
      5 SI          1.1114    0.8736   -2.8166 Si      1  UNL1        0.0000
      6 SI         -2.3780   -3.4483   -0.8552 Si      1  UNL1        0.0000
      7 SI         -0.4070   -4.6704   -0.2664 Si      1  UNL1        0.0000
      8 SI         -0.3912   -0.9589   -3.2776 Si      1  UNL1        0.0000
      9 SI         -1.9572   -1.1668   -1.4970 Si      1  UNL1        0.0000
     10 F           1.1671   -2.0368   -0.7212 F       1  UNL1        0.0000
     11 F           3.2103   -1.4998    0.7604 F       1  UNL1        0.0000
     12 F           2.9253    2.0161   -0.2521 F       1  UNL1        0.0000
     13 F           0.3665    2.0617    0.2050 F       1  UNL1        0.0000
     14 F           0.5140    2.2400   -3.4507 F       1  UNL1        0.0000
     15 F           2.5144    0.6154   -3.5854 F       1  UNL1        0.0000
     16 F           0.4354   -2.3438   -3.4175 F       1  UNL1        0.0000
     17 F          -1.1547   -0.7534   -4.6914 F       1  UNL1        0.0000
     18 F          -1.3281   -0.3385   -0.2591 F       1  UNL1        0.0000
     19 F          -3.3330   -0.3992   -1.8722 F       1  UNL1        0.0000
     20 F          -3.1388   -4.2016   -2.0717 F       1  UNL1        0.0000
     21 F          -3.4159   -3.4834    0.3882 F       1  UNL1        0.0000
     22 F          -0.7696   -6.2358   -0.0446 F       1  UNL1        0.0000
     23 F           0.6345   -4.6519   -1.5089 F       1  UNL1        0.0000
     24 F           2.1890   -4.0604    1.7824 F       1  UNL1        0.0000
     25 F          -0.0209   -4.4346    3.0555 F       1  UNL1        0.0000
@<TRIPOS>BOND
     1     1     3    1
     2     1     2    1
     3     2    24    1
     4     2     7    1
     5     2    25    1
     6     3    10    1
     7     3    11    1
     8     3     4    1
     9     4    12    1
    10     4     5    1
    11     4    13    1
    12     5    15    1
    13     5    14    1
    14     5     8    1
    15     6    20    1
    16     6     7    1
    17     6     9    1
    18     6    21    1
    19     7    22    1
    20     7    23    1
    21     8     9    1
    22     8    16    1
    23     8    17    1
    24     9    19    1
    25     9    18    1
@<TRIPOS>MOLECULE
S_SiF2_8_cyclic
 25 25 0 0 0
SMALL
GASTEIGER
****
Schrodinger Suite 2023-1.
@<TRIPOS>ATOM
      1 S           0.4316   -1.6083    2.0833 S.3     1  UNL1        0.0000
      2 SI          2.1950   -0.9644    3.1264 Si      1  UNL1        0.0000
      3 SI         -0.6348    0.2202    2.3737 Si      1  UNL1        0.0000
      4 SI         -2.5025    0.7703    0.9206 Si      1  UNL1        0.0000
      5 SI         -1.9696    2.9230    0.0006 Si      1  UNL1        0.0000
      6 SI          3.4674    0.6709   -0.2633 Si      1  UNL1        0.0000
      7 SI          3.5582    0.8052    2.1239 Si      1  UNL1        0.0000
      8 SI          0.3724    3.1944   -0.5189 Si      1  UNL1        0.0000
      9 SI          1.2845    1.0985   -1.1831 Si      1  UNL1        0.0000
     10 F           0.5007    1.3217    2.0503 F       1  UNL1        0.0000
     11 F          -0.9958    0.3941    3.9368 F       1  UNL1        0.0000
     12 F          -3.9028    0.8214    1.7379 F       1  UNL1        0.0000
     13 F          -2.7003   -0.3160   -0.2668 F       1  UNL1        0.0000
     14 F          -2.8563    3.1855   -1.3302 F       1  UNL1        0.0000
     15 F          -2.4160    4.0712    1.0533 F       1  UNL1        0.0000
     16 F           1.1783    3.7335    0.7775 F       1  UNL1        0.0000
     17 F           0.5946    4.3082   -1.6740 F       1  UNL1        0.0000
     18 F           0.2305   -0.0194   -0.6794 F       1  UNL1        0.0000
     19 F           1.2949    0.9817   -2.7984 F       1  UNL1        0.0000
     20 F           4.5201    1.7226   -0.9051 F       1  UNL1        0.0000
     21 F           3.9812   -0.7921   -0.7329 F       1  UNL1        0.0000
     22 F           5.0964    0.7002    2.6280 F       1  UNL1        0.0000
     23 F           3.0571    2.2705    2.6044 F       1  UNL1        0.0000
     24 F           1.7171   -0.5224    4.6052 F       1  UNL1        0.0000
     25 F           3.0988   -2.2879    3.3330 F       1  UNL1        0.0000
@<TRIPOS>BOND
     1     1     3    1
     2     1     2    1
     3     2    24    1
     4     2     7    1
     5     2    25    1
     6     3    10    1
     7     3    11    1
     8     3     4    1
     9     4    12    1
    10     4     5    1
    11     4    13    1
    12     5    15    1
    13     5    14    1
    14     5     8    1
    15     6    20    1
    16     6     7    1
    17     6     9    1
    18     6    21    1
    19     7    22    1
    20     7    23    1
    21     8     9    1
    22     8    16    1
    23     8    17    1
    24     9    19    1
    25     9    18    1
@<TRIPOS>MOLECULE
S_SiF2_8_cyclic
 25 25 0 0 0
SMALL
GASTEIGER
****
Schrodinger Suite 2023-1.
@<TRIPOS>ATOM
      1 S           0.4316   -1.6081    2.0833 S.3     1  UNL1        0.0000
      2 SI          2.1692   -0.4699    2.5835 Si      1  UNL1        0.0000
      3 SI         -0.9635   -0.1691    2.8548 Si      1  UNL1        0.0000
      4 SI         -1.0398    0.1961    5.2747 Si      1  UNL1        0.0000
      5 SI         -0.5286   -1.8318    6.4372 Si      1  UNL1        0.0000
      6 SI          5.1202   -1.0333    4.9694 Si      1  UNL1        0.0000
      7 SI          4.3234   -1.5776    2.7709 Si      1  UNL1        0.0000
      8 SI          1.7206   -2.6156    6.0905 Si      1  UNL1        0.0000
      9 SI          3.3804   -1.0013    6.6428 Si      1  UNL1        0.0000
     10 F          -2.4201   -0.6379    2.3354 F       1  UNL1        0.0000
     11 F          -0.6526    1.2230    2.0960 F       1  UNL1        0.0000
     12 F          -2.4985    0.7429    5.7270 F       1  UNL1        0.0000
     13 F           0.0014    1.3555    5.7227 F       1  UNL1        0.0000
     14 F          -0.7694   -1.6206    8.0259 F       1  UNL1        0.0000
     15 F          -1.5819   -2.9794    5.9918 F       1  UNL1        0.0000
     16 F           1.9590   -2.9763    4.5325 F       1  UNL1        0.0000
     17 F           1.9930   -3.9935    6.8967 F       1  UNL1        0.0000
     18 F           2.6913    0.4620    6.7111 F       1  UNL1        0.0000
     19 F           3.9802   -1.2786    8.1218 F       1  UNL1        0.0000
     20 F           6.2778   -2.0792    5.4078 F       1  UNL1        0.0000
     21 F           5.8404    0.4177    4.9249 F       1  UNL1        0.0000
     22 F           5.3621   -1.0639    1.6358 F       1  UNL1        0.0000
     23 F           4.2069   -3.1854    2.5965 F       1  UNL1        0.0000
     24 F           2.2330    0.8537    1.6627 F       1  UNL1        0.0000
     25 F           1.8155    0.0379    4.0748 F       1  UNL1        0.0000
@<TRIPOS>BOND
     1     1     3    1
     2     1     2    1
     3     2    24    1
     4     2     7    1
     5     2    25    1
     6     3    10    1
     7     3    11    1
     8     3     4    1
     9     4    12    1
    10     4     5    1
    11     4    13    1
    12     5    15    1
    13     5    14    1
    14     5     8    1
    15     6    20    1
    16     6     7    1
    17     6     9    1
    18     6    21    1
    19     7    22    1
    20     7    23    1
    21     8     9    1
    22     8    16    1
    23     8    17    1
    24     9    19    1
    25     9    18    1
@<TRIPOS>MOLECULE
S_SiF2_8_cyclic
 25 25 0 0 0
SMALL
GASTEIGER
****
Schrodinger Suite 2023-1.
@<TRIPOS>ATOM
      1 S           0.4315   -1.6080    2.0831 S.3     1  UNL1        0.0000
      2 SI          1.7751   -3.2720    2.2384 Si      1  UNL1        0.0000
      3 SI          1.7772   -0.1171    2.8222 Si      1  UNL1        0.0000
      4 SI          1.5038    1.9022    1.5361 Si      1  UNL1        0.0000
      5 SI          1.4699    0.8797   -0.6092 Si      1  UNL1        0.0000
      6 SI          2.0018   -3.2640   -1.6879 Si      1  UNL1        0.0000
      7 SI          3.2812   -3.4701    0.3411 Si      1  UNL1        0.0000
      8 SI         -0.5985   -0.2131   -1.1180 Si      1  UNL1        0.0000
      9 SI         -0.2958   -2.6056   -1.3772 Si      1  UNL1        0.0000
     10 F           3.2733   -0.6867    2.6095 F       1  UNL1        0.0000
     11 F           1.5296    0.0943    4.4040 F       1  UNL1        0.0000
     12 F           2.7464    2.9310    1.7084 F       1  UNL1        0.0000
     13 F           0.1282    2.6996    1.8548 F       1  UNL1        0.0000
     14 F           1.8863    1.9272   -1.7729 F       1  UNL1        0.0000
     15 F           2.6089   -0.2722   -0.6088 F       1  UNL1        0.0000
     16 F          -1.1956    0.4087   -2.4903 F       1  UNL1        0.0000
     17 F          -1.6969    0.1392    0.0192 F       1  UNL1        0.0000
     18 F          -0.9082   -3.4432   -0.1342 F       1  UNL1        0.0000
     19 F          -1.1544   -3.1038   -2.6583 F       1  UNL1        0.0000
     20 F           2.7089   -2.2057   -2.6914 F       1  UNL1        0.0000
     21 F           2.0467   -4.6769   -2.4805 F       1  UNL1        0.0000
     22 F           4.0769   -4.8832    0.3725 F       1  UNL1        0.0000
     23 F           4.4254   -2.3219    0.3972 F       1  UNL1        0.0000
     24 F           2.5615   -3.1613    3.6456 F       1  UNL1        0.0000
     25 F           0.8546   -4.5955    2.3349 F       1  UNL1        0.0000
@<TRIPOS>BOND
     1     1     3    1
     2     1     2    1
     3     2    24    1
     4     2     7    1
     5     2    25    1
     6     3    10    1
     7     3    11    1
     8     3     4    1
     9     4    12    1
    10     4     5    1
    11     4    13    1
    12     5    15    1
    13     5    14    1
    14     5     8    1
    15     6    20    1
    16     6     7    1
    17     6     9    1
    18     6    21    1
    19     7    22    1
    20     7    23    1
    21     8     9    1
    22     8    16    1
    23     8    17    1
    24     9    19    1
    25     9    18    1
@<TRIPOS>MOLECULE
S_SiF2_8_cyclic
 25 25 0 0 0
SMALL
GASTEIGER
****
Schrodinger Suite 2023-1.
@<TRIPOS>ATOM
      1 S           0.4314   -1.6080    2.0833 S.3     1  UNL1        0.0000
      2 SI          1.6953   -0.3286    3.2512 Si      1  UNL1        0.0000
      3 SI         -0.0018   -0.1996    0.5313 Si      1  UNL1        0.0000
      4 SI         -2.3186   -0.4047   -0.0987 Si      1  UNL1        0.0000
      5 SI         -3.2123   -0.4950    2.1019 Si      1  UNL1        0.0000
      6 SI         -1.2032   -0.1321    5.9026 Si      1  UNL1        0.0000
      7 SI          0.4594    1.1539    4.7287 Si      1  UNL1        0.0000
      8 SI         -2.8926   -2.6080    3.1809 Si      1  UNL1        0.0000
      9 SI         -1.4640   -2.4001    5.1300 Si      1  UNL1        0.0000
     10 F           1.0177   -0.4261   -0.7006 F       1  UNL1        0.0000
     11 F           0.2560    1.2716    1.1455 F       1  UNL1        0.0000
     12 F          -2.6495   -1.7459   -0.9481 F       1  UNL1        0.0000
     13 F          -2.8602    0.8782   -0.9311 F       1  UNL1        0.0000
     14 F          -2.4116    0.5986    2.9891 F       1  UNL1        0.0000
     15 F          -4.7691   -0.0475    2.1292 F       1  UNL1        0.0000
     16 F          -2.3131   -3.6831    2.1168 F       1  UNL1        0.0000
     17 F          -4.3369   -3.1914    3.6283 F       1  UNL1        0.0000
     18 F          -2.0906   -3.2875    6.3327 F       1  UNL1        0.0000
     19 F           0.0060   -3.0341    4.8880 F       1  UNL1        0.0000
     20 F          -0.8346   -0.1477    7.4806 F       1  UNL1        0.0000
     21 F          -2.6432    0.6073    5.8228 F       1  UNL1        0.0000
     22 F          -0.2502    2.3423    3.8832 F       1  UNL1        0.0000
     23 F           1.4521    1.8944    5.7762 F       1  UNL1        0.0000
     24 F           2.6404   -1.2988    4.1307 F       1  UNL1        0.0000
     25 F           2.6753    0.4726    2.2469 F       1  UNL1        0.0000
@<TRIPOS>BOND
     1     1     3    1
     2     1     2    1
     3     2    24    1
     4     2     7    1
     5     2    25    1
     6     3    10    1
     7     3    11    1
     8     3     4    1
     9     4    12    1
    10     4     5    1
    11     4    13    1
    12     5    15    1
    13     5    14    1
    14     5     8    1
    15     6    20    1
    16     6     7    1
    17     6     9    1
    18     6    21    1
    19     7    22    1
    20     7    23    1
    21     8     9    1
    22     8    16    1
    23     8    17    1
    24     9    19    1
    25     9    18    1
@<TRIPOS>MOLECULE
S_SiF2_8_cyclic
 25 25 0 0 0
SMALL
GASTEIGER
****
Schrodinger Suite 2023-1.
@<TRIPOS>ATOM
      1 S           0.4316   -1.6082    2.0832 S.3     1  UNL1        0.0000
      2 SI         -0.4781   -3.3309    2.9793 Si      1  UNL1        0.0000
      3 SI          0.1915   -2.2173    0.0457 Si      1  UNL1        0.0000
      4 SI          2.1720   -1.6286   -1.1942 Si      1  UNL1        0.0000
      5 SI          3.7553   -2.4038    0.3999 Si      1  UNL1        0.0000
      6 SI          3.1105   -4.4310    4.1539 Si      1  UNL1        0.0000
      7 SI          1.0426   -5.2139    3.2015 Si      1  UNL1        0.0000
      8 SI          4.0067   -0.9519    2.2867 Si      1  UNL1        0.0000
      9 SI          3.3003   -2.0354    4.3386 Si      1  UNL1        0.0000
     10 F          -1.1570   -1.5633   -0.5560 F       1  UNL1        0.0000
     11 F           0.0233   -3.8235    0.0514 F       1  UNL1        0.0000
     12 F           2.3182   -0.0385   -1.4772 F       1  UNL1        0.0000
     13 F           2.2860   -2.4155   -2.6084 F       1  UNL1        0.0000
     14 F           3.2033   -3.8134    0.9767 F       1  UNL1        0.0000
     15 F           5.1845   -2.7265   -0.2914 F       1  UNL1        0.0000
     16 F           3.2036    0.4301    2.0238 F       1  UNL1        0.0000
     17 F           5.5636   -0.5198    2.4112 F       1  UNL1        0.0000
     18 F           4.3705   -1.6898    5.5057 F       1  UNL1        0.0000
     19 F           1.8975   -1.4489    4.8948 F       1  UNL1        0.0000
     20 F           3.2942   -5.0929    5.6217 F       1  UNL1        0.0000
     21 F           4.3683   -4.9818    3.2928 F       1  UNL1        0.0000
     22 F           1.3186   -5.8995    1.7577 F       1  UNL1        0.0000
     23 F           0.3957   -6.3810    4.1238 F       1  UNL1        0.0000
     24 F          -0.9832   -2.8720    4.4430 F       1  UNL1        0.0000
     25 F          -1.8054   -3.7020    2.1357 F       1  UNL1        0.0000
@<TRIPOS>BOND
     1     1     3    1
     2     1     2    1
     3     2    24    1
     4     2     7    1
     5     2    25    1
     6     3    10    1
     7     3    11    1
     8     3     4    1
     9     4    12    1
    10     4     5    1
    11     4    13    1
    12     5    15    1
    13     5    14    1
    14     5     8    1
    15     6    20    1
    16     6     7    1
    17     6     9    1
    18     6    21    1
    19     7    22    1
    20     7    23    1
    21     8     9    1
    22     8    16    1
    23     8    17    1
    24     9    19    1
    25     9    18    1
@<TRIPOS>MOLECULE
S_SiF2_8_cyclic
 25 25 0 0 0
SMALL
GASTEIGER
****
Schrodinger Suite 2023-1.
@<TRIPOS>ATOM
      1 S           0.4316   -1.6080    2.0831 S.3     1  UNL1        0.0000
      2 SI         -0.3257   -1.7797    0.0963 Si      1  UNL1        0.0000
      3 SI         -1.2080   -0.4242    2.8312 Si      1  UNL1        0.0000
      4 SI         -0.9392    2.0033    2.9016 Si      1  UNL1        0.0000
      5 SI         -0.8242    2.8610    0.6805 Si      1  UNL1        0.0000
      6 SI          2.3934   -0.7203   -2.5045 Si      1  UNL1        0.0000
      7 SI          1.1533   -2.5840   -1.6628 Si      1  UNL1        0.0000
      8 SI          1.2668    2.2049   -0.2619 Si      1  UNL1        0.0000
      9 SI          1.0705    1.2729   -2.4501 Si      1  UNL1        0.0000
     10 F          -1.5091   -0.9787    4.3192 F       1  UNL1        0.0000
     11 F          -2.5325   -0.7802    1.9780 F       1  UNL1        0.0000
     12 F           0.4003    2.4249    3.7130 F       1  UNL1        0.0000
     13 F          -2.1717    2.6973    3.6964 F       1  UNL1        0.0000
     14 F          -2.0542    2.2938   -0.2080 F       1  UNL1        0.0000
     15 F          -0.9707    4.4752    0.6680 F       1  UNL1        0.0000
     16 F           1.8966    1.0550    0.6865 F       1  UNL1        0.0000
     17 F           2.3288    3.4277   -0.2420 F       1  UNL1        0.0000
     18 F          -0.4701    0.8982   -2.7810 F       1  UNL1        0.0000
     19 F           1.5406    2.3343   -3.5804 F       1  UNL1        0.0000
     20 F           3.7357   -0.4956   -1.6262 F       1  UNL1        0.0000
     21 F           2.8972   -1.0179   -4.0162 F       1  UNL1        0.0000
     22 F           0.2885   -3.2428   -2.8665 F       1  UNL1        0.0000
     23 F           2.1459   -3.7526   -1.1340 F       1  UNL1        0.0000
     24 F          -1.6920   -2.6387    0.1387 F       1  UNL1        0.0000
     25 F          -0.7326   -0.2521   -0.2433 F       1  UNL1        0.0000
@<TRIPOS>BOND
     1     1     3    1
     2     1     2    1
     3     2    24    1
     4     2     7    1
     5     2    25    1
     6     3    10    1
     7     3    11    1
     8     3     4    1
     9     4    12    1
    10     4     5    1
    11     4    13    1
    12     5    15    1
    13     5    14    1
    14     5     8    1
    15     6    20    1
    16     6     7    1
    17     6     9    1
    18     6    21    1
    19     7    22    1
    20     7    23    1
    21     8     9    1
    22     8    16    1
    23     8    17    1
    24     9    19    1
    25     9    18    1
@<TRIPOS>MOLECULE
S_SiF2_8_cyclic
 25 25 0 0 0
SMALL
GASTEIGER
****
Schrodinger Suite 2023-1.
@<TRIPOS>ATOM
      1 S           0.4318   -1.6080    2.0831 S.3     1  UNL1        0.0000
      2 SI          1.5374   -0.2942    3.3872 Si      1  UNL1        0.0000
      3 SI         -1.1476   -0.2294    1.6895 Si      1  UNL1        0.0000
      4 SI         -3.1888   -1.0449    0.6422 Si      1  UNL1        0.0000
      5 SI         -4.6192   -1.8965    2.3594 Si      1  UNL1        0.0000
      6 SI         -1.0015    0.1268    6.3773 Si      1  UNL1        0.0000
      7 SI          1.2167   -0.5261    5.7982 Si      1  UNL1        0.0000
      8 SI         -4.3677   -0.6338    4.3764 Si      1  UNL1        0.0000
      9 SI         -2.5035   -1.5374    5.5612 Si      1  UNL1        0.0000
     10 F          -0.5434    1.0267    0.8748 F       1  UNL1        0.0000
     11 F          -1.5149    0.2962    3.1739 F       1  UNL1        0.0000
     12 F          -2.8855   -2.1781   -0.4777 F       1  UNL1        0.0000
     13 F          -3.9423    0.1623   -0.1361 F       1  UNL1        0.0000
     14 F          -6.1638   -1.8679    1.8688 F       1  UNL1        0.0000
     15 F          -4.2771   -3.4518    2.6558 F       1  UNL1        0.0000
     16 F          -5.7107   -0.6781    5.2815 F       1  UNL1        0.0000
     17 F          -4.1140    0.9215    4.0023 F       1  UNL1        0.0000
     18 F          -2.9907   -2.5222    6.7512 F       1  UNL1        0.0000
     19 F          -1.6887   -2.4699    4.5196 F       1  UNL1        0.0000
     20 F          -1.1615    0.2979    7.9810 F       1  UNL1        0.0000
     21 F          -1.3494    1.5734    5.7368 F       1  UNL1        0.0000
     22 F           2.2876    0.3810    6.6123 F       1  UNL1        0.0000
     23 F           1.4743   -2.0521    6.2832 F       1  UNL1        0.0000
     24 F           3.0958   -0.5218    3.0241 F       1  UNL1        0.0000
     25 F           1.2295    1.2334    2.9621 F       1  UNL1        0.0000
@<TRIPOS>BOND
     1     1     3    1
     2     1     2    1
     3     2    24    1
     4     2     7    1
     5     2    25    1
     6     3    10    1
     7     3    11    1
     8     3     4    1
     9     4    12    1
    10     4     5    1
    11     4    13    1
    12     5    15    1
    13     5    14    1
    14     5     8    1
    15     6    20    1
    16     6     7    1
    17     6     9    1
    18     6    21    1
    19     7    22    1
    20     7    23    1
    21     8     9    1
    22     8    16    1
    23     8    17    1
    24     9    19    1
    25     9    18    1
@<TRIPOS>MOLECULE
S_SiF2_8_cyclic
 25 25 0 0 0
SMALL
GASTEIGER
****
Schrodinger Suite 2023-1.
@<TRIPOS>ATOM
      1 S           0.4317   -1.6081    2.0833 S.3     1  UNL1        0.0000
      2 SI          2.3269   -0.8417    1.3978 Si      1  UNL1        0.0000
      3 SI         -0.4064    0.2970    2.5502 Si      1  UNL1        0.0000
      4 SI         -2.8004    0.4610    2.9626 Si      1  UNL1        0.0000
      5 SI         -3.9052    0.7061    0.8556 Si      1  UNL1        0.0000
      6 SI          1.2108    1.2340   -1.7660 Si      1  UNL1        0.0000
      7 SI          2.6378   -0.5166   -1.0037 Si      1  UNL1        0.0000
      8 SI         -2.5548    1.9622   -0.6690 Si      1  UNL1        0.0000
      9 SI         -1.0379    0.4396   -1.7065 Si      1  UNL1        0.0000
     10 F          -0.0613    1.1525    1.2223 F       1  UNL1        0.0000
     11 F           0.4342    0.9450    3.7667 F       1  UNL1        0.0000
     12 F          -3.1235    1.7500    3.8927 F       1  UNL1        0.0000
     13 F          -3.3668   -0.8263    3.7704 F       1  UNL1        0.0000
     14 F          -4.2238   -0.7473    0.2156 F       1  UNL1        0.0000
     15 F          -5.3430    1.4272    1.0562 F       1  UNL1        0.0000
     16 F          -1.7528    3.1070    0.1493 F       1  UNL1        0.0000
     17 F          -3.4566    2.7306   -1.7741 F       1  UNL1        0.0000
     18 F          -1.0585   -0.9195   -0.8286 F       1  UNL1        0.0000
     19 F          -1.5516    0.0212   -3.1845 F       1  UNL1        0.0000
     20 F           1.3779    2.5460   -0.8306 F       1  UNL1        0.0000
     21 F           1.6079    1.7013   -3.2663 F       1  UNL1        0.0000
     22 F           2.3145   -1.8747   -1.8293 F       1  UNL1        0.0000
     23 F           4.1827   -0.1538   -1.3414 F       1  UNL1        0.0000
     24 F           2.6253    0.5518    2.1582 F       1  UNL1        0.0000
     25 F           3.4448   -1.8679    1.9543 F       1  UNL1        0.0000
@<TRIPOS>BOND
     1     1     3    1
     2     1     2    1
     3     2    24    1
     4     2     7    1
     5     2    25    1
     6     3    10    1
     7     3    11    1
     8     3     4    1
     9     4    12    1
    10     4     5    1
    11     4    13    1
    12     5    15    1
    13     5    14    1
    14     5     8    1
    15     6    20    1
    16     6     7    1
    17     6     9    1
    18     6    21    1
    19     7    22    1
    20     7    23    1
    21     8     9    1
    22     8    16    1
    23     8    17    1
    24     9    19    1
    25     9    18    1
@<TRIPOS>MOLECULE
S_SiF2_8_cyclic
 25 25 0 0 0
SMALL
GASTEIGER
****
Schrodinger Suite 2023-1.
@<TRIPOS>ATOM
      1 S           0.4316   -1.6083    2.0831 S.3     1  UNL1        0.0000
      2 SI          0.1901   -2.7314    0.2584 Si      1  UNL1        0.0000
      3 SI         -1.1474   -0.2294    1.6893 Si      1  UNL1        0.0000
      4 SI         -1.3133    1.7883    3.0420 Si      1  UNL1        0.0000
      5 SI          0.1173    3.4483    2.0841 Si      1  UNL1        0.0000
      6 SI          1.0884    0.0004   -2.4430 Si      1  UNL1        0.0000
      7 SI          1.6299   -2.1763   -1.6360 Si      1  UNL1        0.0000
      8 SI          0.1816    3.2395   -0.2987 Si      1  UNL1        0.0000
      9 SI          1.8283    1.5963   -0.8316 Si      1  UNL1        0.0000
     10 F          -2.5457   -1.0362    1.6827 F       1  UNL1        0.0000
     11 F          -0.8410    0.2077    0.1630 F       1  UNL1        0.0000
     12 F          -0.9277    1.5125    4.5931 F       1  UNL1        0.0000
     13 F          -2.8405    2.3346    3.0514 F       1  UNL1        0.0000
     14 F          -0.3843    4.9314    2.5037 F       1  UNL1        0.0000
     15 F           1.6188    3.3048    2.6745 F       1  UNL1        0.0000
     16 F           0.5164    4.6538   -1.0146 F       1  UNL1        0.0000
     17 F          -1.2788    2.7861   -0.8326 F       1  UNL1        0.0000
     18 F           3.2182    2.2908   -1.2890 F       1  UNL1        0.0000
     19 F           2.1604    0.7990    0.5368 F       1  UNL1        0.0000
     20 F           1.7834    0.2814   -3.8800 F       1  UNL1        0.0000
     21 F          -0.5078    0.1316   -2.6854 F       1  UNL1        0.0000
     22 F           1.4591   -3.2634   -2.8282 F       1  UNL1        0.0000
     23 F           3.1966   -2.2232   -1.2194 F       1  UNL1        0.0000
     24 F           0.4025   -4.2816    0.6635 F       1  UNL1        0.0000
     25 F          -1.3528   -2.6306   -0.2088 F       1  UNL1        0.0000
@<TRIPOS>BOND
     1     1     3    1
     2     1     2    1
     3     2    24    1
     4     2     7    1
     5     2    25    1
     6     3    10    1
     7     3    11    1
     8     3     4    1
     9     4    12    1
    10     4     5    1
    11     4    13    1
    12     5    15    1
    13     5    14    1
    14     5     8    1
    15     6    20    1
    16     6     7    1
    17     6     9    1
    18     6    21    1
    19     7    22    1
    20     7    23    1
    21     8     9    1
    22     8    16    1
    23     8    17    1
    24     9    19    1
    25     9    18    1
@<TRIPOS>MOLECULE
S_SiF2_8_cyclic
 25 25 0 0 0
SMALL
GASTEIGER
****
Schrodinger Suite 2023-1.
@<TRIPOS>ATOM
      1 S           0.4315   -1.6082    2.0831 S.3     1  UNL1        0.0000
      2 SI          1.6849   -2.9094    3.2171 Si      1  UNL1        0.0000
      3 SI          1.9437   -1.0576    0.6481 Si      1  UNL1        0.0000
      4 SI          2.0090   -2.2617   -1.4769 Si      1  UNL1        0.0000
      5 SI          2.6482   -4.5261   -1.0944 Si      1  UNL1        0.0000
      6 SI         -0.0070   -6.4048    3.6752 Si      1  UNL1        0.0000
      7 SI          0.6623   -4.4200    4.8300 Si      1  UNL1        0.0000
      8 SI          0.8391   -5.6358   -0.0051 Si      1  UNL1        0.0000
      9 SI          1.5146   -6.9073    1.8982 Si      1  UNL1        0.0000
     10 F           3.3911   -1.1662    1.3568 F       1  UNL1        0.0000
     11 F           1.7333    0.5205    0.3696 F       1  UNL1        0.0000
     12 F           3.0511   -1.5618   -2.5048 F       1  UNL1        0.0000
     13 F           0.5677   -2.2257   -2.2196 F       1  UNL1        0.0000
     14 F           3.0174   -5.2731   -2.4846 F       1  UNL1        0.0000
     15 F           3.9870   -4.5885   -0.1844 F       1  UNL1        0.0000
     16 F          -0.0029   -6.5469   -1.0463 F       1  UNL1        0.0000
     17 F          -0.1881   -4.5030    0.5244 F       1  UNL1        0.0000
     18 F           1.5398   -8.4920    1.5618 F       1  UNL1        0.0000
     19 F           3.0165   -6.5082    2.3547 F       1  UNL1        0.0000
     20 F          -0.0952   -7.6518    4.7071 F       1  UNL1        0.0000
     21 F          -1.4980   -6.2260    3.0681 F       1  UNL1        0.0000
     22 F          -0.5975   -3.7356    5.5884 F       1  UNL1        0.0000
     23 F           1.7266   -4.8064    5.9914 F       1  UNL1        0.0000
     24 F           2.3826   -3.7992    2.0612 F       1  UNL1        0.0000
     25 F           2.8485   -2.0294    3.9084 F       1  UNL1        0.0000
@<TRIPOS>BOND
     1     1     3    1
     2     1     2    1
     3     2    24    1
     4     2     7    1
     5     2    25    1
     6     3    10    1
     7     3    11    1
     8     3     4    1
     9     4    12    1
    10     4     5    1
    11     4    13    1
    12     5    15    1
    13     5    14    1
    14     5     8    1
    15     6    20    1
    16     6     7    1
    17     6     9    1
    18     6    21    1
    19     7    22    1
    20     7    23    1
    21     8     9    1
    22     8    16    1
    23     8    17    1
    24     9    19    1
    25     9    18    1
@<TRIPOS>MOLECULE
S_SiF2_8_cyclic
 25 25 0 0 0
SMALL
GASTEIGER
****
Schrodinger Suite 2023-1.
@<TRIPOS>ATOM
      1 S           0.4316   -1.6081    2.0831 S.3     1  UNL1        0.0000
      2 SI         -0.7502   -3.3741    2.3216 Si      1  UNL1        0.0000
      3 SI         -1.1724   -0.2137    2.4110 Si      1  UNL1        0.0000
      4 SI         -2.4594    0.4881    0.4530 Si      1  UNL1        0.0000
      5 SI         -4.1611   -1.1091   -0.0394 Si      1  UNL1        0.0000
      6 SI         -2.0951   -6.5178    0.4663 Si      1  UNL1        0.0000
      7 SI         -0.0920   -5.3483    1.0598 Si      1  UNL1        0.0000
      8 SI         -3.2011   -3.0608   -1.0399 Si      1  UNL1        0.0000
      9 SI         -3.9457   -5.0351    0.0772 Si      1  UNL1        0.0000
     10 F          -0.5024    1.0792    3.1122 F       1  UNL1        0.0000
     11 F          -2.1533   -0.8393    3.5328 F       1  UNL1        0.0000
     12 F          -1.5018    0.6591   -0.8446 F       1  UNL1        0.0000
     13 F          -3.1314    1.9443    0.6973 F       1  UNL1        0.0000
     14 F          -4.9411   -1.5110    1.3215 F       1  UNL1        0.0000
     15 F          -5.2828   -0.4732   -1.0212 F       1  UNL1        0.0000
     16 F          -1.5906   -2.9988   -0.8703 F       1  UNL1        0.0000
     17 F          -3.4855   -3.1332   -2.6324 F       1  UNL1        0.0000
     18 F          -4.6021   -4.6305    1.5011 F       1  UNL1        0.0000
     19 F          -5.1190   -5.7660   -0.7678 F       1  UNL1        0.0000
     20 F          -1.8359   -7.4220   -0.8533 F       1  UNL1        0.0000
     21 F          -2.4794   -7.5610    1.6454 F       1  UNL1        0.0000
     22 F           0.9010   -6.3042    1.9149 F       1  UNL1        0.0000
     23 F           0.7141   -4.9429   -0.2875 F       1  UNL1        0.0000
     24 F          -0.8929   -3.6984    3.8964 F       1  UNL1        0.0000
     25 F          -2.2316   -2.9608    1.8204 F       1  UNL1        0.0000
@<TRIPOS>BOND
     1     1     3    1
     2     1     2    1
     3     2    24    1
     4     2     7    1
     5     2    25    1
     6     3    10    1
     7     3    11    1
     8     3     4    1
     9     4    12    1
    10     4     5    1
    11     4    13    1
    12     5    15    1
    13     5    14    1
    14     5     8    1
    15     6    20    1
    16     6     7    1
    17     6     9    1
    18     6    21    1
    19     7    22    1
    20     7    23    1
    21     8     9    1
    22     8    16    1
    23     8    17    1
    24     9    19    1
    25     9    18    1
@<TRIPOS>MOLECULE
S_SiF2_8_cyclic
 25 25 0 0 0
SMALL
GASTEIGER
****
Schrodinger Suite 2023-1.
@<TRIPOS>ATOM
      1 S           0.4318   -1.6079    2.0831 S.3     1  UNL1        0.0000
      2 SI          0.1474   -1.4458   -0.0301 Si      1  UNL1        0.0000
      3 SI         -1.1407   -0.2469    2.6304 Si      1  UNL1        0.0000
      4 SI         -0.5528    2.1196    2.8227 Si      1  UNL1        0.0000
      5 SI         -0.6070    3.1658    0.6799 Si      1  UNL1        0.0000
      6 SI          1.8244   -0.2624   -3.3346 Si      1  UNL1        0.0000
      7 SI          2.1028   -1.7173   -1.4536 Si      1  UNL1        0.0000
      8 SI          1.3058    2.5196   -0.6066 Si      1  UNL1        0.0000
      9 SI          0.6480    1.7558   -2.7711 Si      1  UNL1        0.0000
     10 F          -1.7189   -0.7791    4.0428 F       1  UNL1        0.0000
     11 F          -2.3536   -0.4403    1.5800 F       1  UNL1        0.0000
     12 F           0.9248    2.3040    3.4653 F       1  UNL1        0.0000
     13 F          -1.5681    2.8852    3.8300 F       1  UNL1        0.0000
     14 F          -1.9644    2.7458   -0.0968 F       1  UNL1        0.0000
     15 F          -0.6620    4.7788    0.8265 F       1  UNL1        0.0000
     16 F           2.0395    1.2776    0.1320 F       1  UNL1        0.0000
     17 F           2.4065    3.7035   -0.7008 F       1  UNL1        0.0000
     18 F          -0.9428    1.4534   -2.7723 F       1  UNL1        0.0000
     19 F           0.8879    2.9080   -3.8845 F       1  UNL1        0.0000
     20 F           3.2708    0.1087   -3.9640 F       1  UNL1        0.0000
     21 F           1.0227   -1.0439   -4.5062 F       1  UNL1        0.0000
     22 F           2.2851   -3.2549   -1.9369 F       1  UNL1        0.0000
     23 F           3.4634   -1.3229   -0.6646 F       1  UNL1        0.0000
     24 F          -1.0494   -2.4341   -0.4733 F       1  UNL1        0.0000
     25 F          -0.4090    0.0545   -0.2669 F       1  UNL1        0.0000
@<TRIPOS>BOND
     1     1     3    1
     2     1     2    1
     3     2    24    1
     4     2     7    1
     5     2    25    1
     6     3    10    1
     7     3    11    1
     8     3     4    1
     9     4    12    1
    10     4     5    1
    11     4    13    1
    12     5    15    1
    13     5    14    1
    14     5     8    1
    15     6    20    1
    16     6     7    1
    17     6     9    1
    18     6    21    1
    19     7    22    1
    20     7    23    1
    21     8     9    1
    22     8    16    1
    23     8    17    1
    24     9    19    1
    25     9    18    1
@<TRIPOS>MOLECULE
S_SiF2_8_cyclic
 25 25 0 0 0
SMALL
GASTEIGER
****
Schrodinger Suite 2023-1.
@<TRIPOS>ATOM
      1 S           0.4318   -1.6080    2.0830 S.3     1  UNL1        0.0000
      2 SI          0.2528   -2.3782    0.0830 Si      1  UNL1        0.0000
      3 SI         -0.6448    0.2046    1.7256 Si      1  UNL1        0.0000
      4 SI         -0.0162    2.1631    3.0265 Si      1  UNL1        0.0000
      5 SI         -0.3109    4.0785    1.6205 Si      1  UNL1        0.0000
      6 SI          1.5362    0.3790   -2.4633 Si      1  UNL1        0.0000
      7 SI          1.9999   -1.7588   -1.5128 Si      1  UNL1        0.0000
      8 SI          0.1467    3.6035   -0.6902 Si      1  UNL1        0.0000
      9 SI          2.0005    2.1102   -0.8762 Si      1  UNL1        0.0000
     10 F          -2.2267   -0.0971    1.8367 F       1  UNL1        0.0000
     11 F          -0.3714    0.5581    0.1711 F       1  UNL1        0.0000
     12 F           1.5308    2.0794    3.5051 F       1  UNL1        0.0000
     13 F          -0.9048    2.2978    4.3768 F       1  UNL1        0.0000
     14 F          -1.8291    4.6259    1.7673 F       1  UNL1        0.0000
     15 F           0.6429    5.2869    2.1268 F       1  UNL1        0.0000
     16 F           0.4175    4.9630   -1.5287 F       1  UNL1        0.0000
     17 F          -1.1619    2.9188   -1.3540 F       1  UNL1        0.0000
     18 F           3.3714    2.9010   -1.2189 F       1  UNL1        0.0000
     19 F           2.2178    1.4395    0.5831 F       1  UNL1        0.0000
     20 F           2.4037    0.6114   -3.8124 F       1  UNL1        0.0000
     21 F          -0.0163    0.4471   -2.9187 F       1  UNL1        0.0000
     22 F           2.1215   -2.8662   -2.6920 F       1  UNL1        0.0000
     23 F           3.4553   -1.7169   -0.7984 F       1  UNL1        0.0000
     24 F           0.1961   -3.9869    0.2285 F       1  UNL1        0.0000
     25 F          -1.2006   -1.9560   -0.4839 F       1  UNL1        0.0000
@<TRIPOS>BOND
     1     1     3    1
     2     1     2    1
     3     2    24    1
     4     2     7    1
     5     2    25    1
     6     3    10    1
     7     3    11    1
     8     3     4    1
     9     4    12    1
    10     4     5    1
    11     4    13    1
    12     5    15    1
    13     5    14    1
    14     5     8    1
    15     6    20    1
    16     6     7    1
    17     6     9    1
    18     6    21    1
    19     7    22    1
    20     7    23    1
    21     8     9    1
    22     8    16    1
    23     8    17    1
    24     9    19    1
    25     9    18    1
@<TRIPOS>MOLECULE
S_SiF2_8_cyclic
 25 25 0 0 0
SMALL
GASTEIGER
****
Schrodinger Suite 2023-1.
@<TRIPOS>ATOM
      1 S           0.4316   -1.6083    2.0833 S.3     1  UNL1        0.0000
      2 SI          1.2089   -0.2952    3.5989 Si      1  UNL1        0.0000
      3 SI         -1.4935   -0.6870    1.9504 Si      1  UNL1        0.0000
      4 SI         -3.3825   -2.1042    1.3614 Si      1  UNL1        0.0000
      5 SI         -5.2949   -1.2714    2.5368 Si      1  UNL1        0.0000
      6 SI         -1.3251   -0.2261    6.6507 Si      1  UNL1        0.0000
      7 SI          0.8351   -0.9353    5.9298 Si      1  UNL1        0.0000
      8 SI         -4.7256   -0.3379    4.6766 Si      1  UNL1        0.0000
      9 SI         -3.0161   -1.6403    5.7167 Si      1  UNL1        0.0000
     10 F          -1.3917    0.5979    0.9786 F       1  UNL1        0.0000
     11 F          -1.7823   -0.0993    3.4295 F       1  UNL1        0.0000
     12 F          -3.1164   -3.6455    1.7894 F       1  UNL1        0.0000
     13 F          -3.6494   -2.1147   -0.2384 F       1  UNL1        0.0000
     14 F          -6.0320   -0.1437    1.6361 F       1  UNL1        0.0000
     15 F          -6.3820   -2.4572    2.7325 F       1  UNL1        0.0000
     16 F          -6.0265   -0.2256    5.6356 F       1  UNL1        0.0000
     17 F          -4.1918    1.1758    4.4632 F       1  UNL1        0.0000
     18 F          -3.6289   -2.6641    6.8115 F       1  UNL1        0.0000
     19 F          -2.3506   -2.5597    4.5599 F       1  UNL1        0.0000
     20 F          -1.4243   -0.2312    8.2683 F       1  UNL1        0.0000
     21 F          -1.5739    1.3084    6.1972 F       1  UNL1        0.0000
     22 F           1.9707   -0.2915    6.8929 F       1  UNL1        0.0000
     23 F           0.9567   -2.5411    6.1211 F       1  UNL1        0.0000
     24 F           2.7958   -0.1782    3.3157 F       1  UNL1        0.0000
     25 F           0.6222    1.1851    3.3221 F       1  UNL1        0.0000
@<TRIPOS>BOND
     1     1     3    1
     2     1     2    1
     3     2    24    1
     4     2     7    1
     5     2    25    1
     6     3    10    1
     7     3    11    1
     8     3     4    1
     9     4    12    1
    10     4     5    1
    11     4    13    1
    12     5    15    1
    13     5    14    1
    14     5     8    1
    15     6    20    1
    16     6     7    1
    17     6     9    1
    18     6    21    1
    19     7    22    1
    20     7    23    1
    21     8     9    1
    22     8    16    1
    23     8    17    1
    24     9    19    1
    25     9    18    1
@<TRIPOS>MOLECULE
S_SiF2_8_cyclic
 25 25 0 0 0
SMALL
GASTEIGER
****
Schrodinger Suite 2023-1.
@<TRIPOS>ATOM
      1 S           0.4317   -1.6081    2.0834 S.3     1  UNL1        0.0000
      2 SI          2.1101   -0.6463    1.1441 Si      1  UNL1        0.0000
      3 SI         -0.8261    0.1206    2.1274 Si      1  UNL1        0.0000
      4 SI         -3.2292   -0.2333    1.9757 Si      1  UNL1        0.0000
      5 SI         -4.1471    1.6045    0.7460 Si      1  UNL1        0.0000
      6 SI          0.8565    1.1290   -2.1733 Si      1  UNL1        0.0000
      7 SI          2.1764   -0.6557   -1.3007 Si      1  UNL1        0.0000
      8 SI         -2.6431    2.4302   -0.9367 Si      1  UNL1        0.0000
      9 SI         -1.4730    0.6188   -1.9615 Si      1  UNL1        0.0000
     10 F          -0.3906    0.9922    0.8361 F       1  UNL1        0.0000
     11 F          -0.4392    1.0157    3.4137 F       1  UNL1        0.0000
     12 F          -3.9135   -0.3436    3.4422 F       1  UNL1        0.0000
     13 F          -3.5717   -1.6196    1.2075 F       1  UNL1        0.0000
     14 F          -5.5455    1.1632    0.0562 F       1  UNL1        0.0000
     15 F          -4.5211    2.8041    1.7693 F       1  UNL1        0.0000
     16 F          -1.5776    3.4319   -0.2416 F       1  UNL1        0.0000
     17 F          -3.4282    3.3093   -2.0482 F       1  UNL1        0.0000
     18 F          -1.6425   -0.6666   -0.9891 F       1  UNL1        0.0000
     19 F          -2.1384    0.2043   -3.3784 F       1  UNL1        0.0000
     20 F           1.1981    2.4976   -1.3781 F       1  UNL1        0.0000
     21 F           1.2262    1.4148   -3.7251 F       1  UNL1        0.0000
     22 F           1.6271   -2.0612   -1.8947 F       1  UNL1        0.0000
     23 F           3.7018   -0.5193   -1.8360 F       1  UNL1        0.0000
     24 F           2.1922    0.8681    1.7022 F       1  UNL1        0.0000
     25 F           3.4271   -1.3806    1.7259 F       1  UNL1        0.0000
@<TRIPOS>BOND
     1     1     3    1
     2     1     2    1
     3     2    24    1
     4     2     7    1
     5     2    25    1
     6     3    10    1
     7     3    11    1
     8     3     4    1
     9     4    12    1
    10     4     5    1
    11     4    13    1
    12     5    15    1
    13     5    14    1
    14     5     8    1
    15     6    20    1
    16     6     7    1
    17     6     9    1
    18     6    21    1
    19     7    22    1
    20     7    23    1
    21     8     9    1
    22     8    16    1
    23     8    17    1
    24     9    19    1
    25     9    18    1
@<TRIPOS>MOLECULE
S_SiF2_8_cyclic
 25 25 0 0 0
SMALL
GASTEIGER
****
Schrodinger Suite 2023-1.
@<TRIPOS>ATOM
      1 S           0.4314   -1.6080    2.0833 S.3     1  UNL1        0.0000
      2 SI         -0.3551   -1.3128    0.1235 Si      1  UNL1        0.0000
      3 SI         -0.8515   -0.1529    3.0235 Si      1  UNL1        0.0000
      4 SI         -0.2166    2.2193    2.9867 Si      1  UNL1        0.0000
      5 SI         -0.9779    3.2789    0.9761 Si      1  UNL1        0.0000
      6 SI          2.6622   -0.1161   -2.0372 Si      1  UNL1        0.0000
      7 SI          1.0609   -1.8798   -1.7735 Si      1  UNL1        0.0000
      8 SI          0.4673    2.9518   -0.9294 Si      1  UNL1        0.0000
      9 SI          2.3460    1.5918   -0.3872 Si      1  UNL1        0.0000
     10 F          -1.0241   -0.6417    4.5544 F       1  UNL1        0.0000
     11 F          -2.3160   -0.3205    2.3620 F       1  UNL1        0.0000
     12 F           1.3817    2.4415    3.1450 F       1  UNL1        0.0000
     13 F          -0.8658    2.9855    4.2605 F       1  UNL1        0.0000
     14 F          -2.4623    2.7313    0.6261 F       1  UNL1        0.0000
     15 F          -1.1641    4.8674    1.2379 F       1  UNL1        0.0000
     16 F           0.9496    4.3669   -1.5530 F       1  UNL1        0.0000
     17 F          -0.3426    2.1936   -2.1115 F       1  UNL1        0.0000
     18 F           3.6761    2.4919   -0.1795 F       1  UNL1        0.0000
     19 F           2.0440    0.8824    1.0325 F       1  UNL1        0.0000
     20 F           4.1677   -0.7079   -1.9426 F       1  UNL1        0.0000
     21 F           2.5370    0.5378   -3.5144 F       1  UNL1        0.0000
     22 F           0.1728   -2.0229   -3.1231 F       1  UNL1        0.0000
     23 F           1.7999   -3.3085   -1.5665 F       1  UNL1        0.0000
     24 F          -1.7974   -2.0321    0.0333 F       1  UNL1        0.0000
     25 F          -0.6291    0.2809    0.0654 F       1  UNL1        0.0000
@<TRIPOS>BOND
     1     1     3    1
     2     1     2    1
     3     2    24    1
     4     2     7    1
     5     2    25    1
     6     3    10    1
     7     3    11    1
     8     3     4    1
     9     4    12    1
    10     4     5    1
    11     4    13    1
    12     5    15    1
    13     5    14    1
    14     5     8    1
    15     6    20    1
    16     6     7    1
    17     6     9    1
    18     6    21    1
    19     7    22    1
    20     7    23    1
    21     8     9    1
    22     8    16    1
    23     8    17    1
    24     9    19    1
    25     9    18    1
@<TRIPOS>MOLECULE
S_SiF2_8_cyclic
 25 25 0 0 0
SMALL
GASTEIGER
****
Schrodinger Suite 2023-1.
@<TRIPOS>ATOM
      1 S           0.4317   -1.6083    2.0830 S.3     1  UNL1        0.0000
      2 SI         -1.1885   -2.2365    0.8071 Si      1  UNL1        0.0000
      3 SI         -0.4738   -2.2941    3.8874 Si      1  UNL1        0.0000
      4 SI          0.2059   -1.2472    5.9770 Si      1  UNL1        0.0000
      5 SI         -0.8869    0.8817    6.1118 Si      1  UNL1        0.0000
      6 SI         -4.7502   -1.1595    2.2693 Si      1  UNL1        0.0000
      7 SI         -3.1442   -0.7767    0.5319 Si      1  UNL1        0.0000
      8 SI         -2.2671    1.2675    4.1918 Si      1  UNL1        0.0000
      9 SI         -4.2808    0.0034    4.3319 Si      1  UNL1        0.0000
     10 F          -0.3441   -3.9019    3.9503 F       1  UNL1        0.0000
     11 F          -2.0429   -1.9654    3.6679 F       1  UNL1        0.0000
     12 F           1.8163   -1.0799    6.0702 F       1  UNL1        0.0000
     13 F          -0.2256   -2.1678    7.2407 F       1  UNL1        0.0000
     14 F          -1.7977    0.9601    7.4494 F       1  UNL1        0.0000
     15 F           0.2099    2.0660    6.2544 F       1  UNL1        0.0000
     16 F          -1.4675    0.7718    2.8785 F       1  UNL1        0.0000
     17 F          -2.5813    2.8411    3.9740 F       1  UNL1        0.0000
     18 F          -4.0880   -1.0654    5.5355 F       1  UNL1        0.0000
     19 F          -5.5194    0.9516    4.7688 F       1  UNL1        0.0000
     20 F          -6.2256   -0.7412    1.7451 F       1  UNL1        0.0000
     21 F          -4.8395   -2.7515    2.5574 F       1  UNL1        0.0000
     22 F          -3.8474   -1.0584   -0.9024 F       1  UNL1        0.0000
     23 F          -2.7505    0.7958    0.4939 F       1  UNL1        0.0000
     24 F          -0.5244   -2.5269   -0.6376 F       1  UNL1        0.0000
     25 F          -1.6757   -3.6807    1.3428 F       1  UNL1        0.0000
@<TRIPOS>BOND
     1     1     3    1
     2     1     2    1
     3     2    24    1
     4     2     7    1
     5     2    25    1
     6     3    10    1
     7     3    11    1
     8     3     4    1
     9     4    12    1
    10     4     5    1
    11     4    13    1
    12     5    15    1
    13     5    14    1
    14     5     8    1
    15     6    20    1
    16     6     7    1
    17     6     9    1
    18     6    21    1
    19     7    22    1
    20     7    23    1
    21     8     9    1
    22     8    16    1
    23     8    17    1
    24     9    19    1
    25     9    18    1
@<TRIPOS>MOLECULE
S_SiF2_8_cyclic
 25 25 0 0 0
SMALL
GASTEIGER
****
Schrodinger Suite 2023-1.
@<TRIPOS>ATOM
      1 S           0.4316   -1.6083    2.0833 S.3     1  UNL1        0.0000
      2 SI         -1.1109   -3.0471    2.3949 Si      1  UNL1        0.0000
      3 SI         -0.7406    0.0739    2.7487 Si      1  UNL1        0.0000
      4 SI         -2.2656    1.1801    1.1733 Si      1  UNL1        0.0000
      5 SI         -4.3979    0.0868    1.1368 Si      1  UNL1        0.0000
      6 SI         -1.8069   -4.6151   -1.1067 Si      1  UNL1        0.0000
      7 SI         -1.0276   -5.1098    1.1052 Si      1  UNL1        0.0000
      8 SI         -4.4915   -1.8637   -0.2823 Si      1  UNL1        0.0000
      9 SI         -2.3921   -2.3015   -1.3188 Si      1  UNL1        0.0000
     10 F           0.3197    1.1514    3.3204 F       1  UNL1        0.0000
     11 F          -1.5772   -0.4177    4.0405 F       1  UNL1        0.0000
     12 F          -1.6667    1.2513   -0.3318 F       1  UNL1        0.0000
     13 F          -2.4784    2.7293    1.6044 F       1  UNL1        0.0000
     14 F          -4.7982   -0.3295    2.6507 F       1  UNL1        0.0000
     15 F          -5.5389    1.1398    0.6721 F       1  UNL1        0.0000
     16 F          -5.6590   -1.7257   -1.3966 F       1  UNL1        0.0000
     17 F          -4.8669   -3.1700    0.6013 F       1  UNL1        0.0000
     18 F          -2.3915   -1.8124   -2.8626 F       1  UNL1        0.0000
     19 F          -1.2746   -1.4191   -0.5558 F       1  UNL1        0.0000
     20 F          -0.6755   -5.0046   -2.1994 F       1  UNL1        0.0000
     21 F          -3.0973   -5.5277   -1.4631 F       1  UNL1        0.0000
     22 F          -1.9726   -6.2415    1.7810 F       1  UNL1        0.0000
     23 F           0.4681   -5.7353    1.0671 F       1  UNL1        0.0000
     24 F          -1.2361   -3.3331    3.9785 F       1  UNL1        0.0000
     25 F          -2.4548   -2.2573    1.9604 F       1  UNL1        0.0000
@<TRIPOS>BOND
     1     1     3    1
     2     1     2    1
     3     2    24    1
     4     2     7    1
     5     2    25    1
     6     3    10    1
     7     3    11    1
     8     3     4    1
     9     4    12    1
    10     4     5    1
    11     4    13    1
    12     5    15    1
    13     5    14    1
    14     5     8    1
    15     6    20    1
    16     6     7    1
    17     6     9    1
    18     6    21    1
    19     7    22    1
    20     7    23    1
    21     8     9    1
    22     8    16    1
    23     8    17    1
    24     9    19    1
    25     9    18    1
@<TRIPOS>MOLECULE
S_SiF2_8_cyclic
 25 25 0 0 0
SMALL
GASTEIGER
****
Schrodinger Suite 2023-1.
@<TRIPOS>ATOM
      1 S           0.4316   -1.6081    2.0834 S.3     1  UNL1        0.0000
      2 SI         -0.9113   -3.2946    2.0759 Si      1  UNL1        0.0000
      3 SI         -1.0042   -0.2218    1.3333 Si      1  UNL1        0.0000
      4 SI         -0.1864    1.7557    0.1733 Si      1  UNL1        0.0000
      5 SI          0.4852    1.0813   -2.0264 Si      1  UNL1        0.0000
      6 SI         -2.9518   -3.5652   -1.3528 Si      1  UNL1        0.0000
      7 SI         -1.2441   -4.5645    0.0001 Si      1  UNL1        0.0000
      8 SI          0.1186   -1.2625   -2.3618 Si      1  UNL1        0.0000
      9 SI         -2.1943   -1.7149   -2.7054 Si      1  UNL1        0.0000
     10 F          -2.0246    0.1588    2.5247 F       1  UNL1        0.0000
     11 F          -1.8471   -1.0970    0.2647 F       1  UNL1        0.0000
     12 F           1.0436    2.4533    0.9675 F       1  UNL1        0.0000
     13 F          -1.3525    2.8785    0.0724 F       1  UNL1        0.0000
     14 F          -0.3383    1.9165   -3.1442 F       1  UNL1        0.0000
     15 F           2.0467    1.4394   -2.2694 F       1  UNL1        0.0000
     16 F           0.5784   -2.0489   -1.0277 F       1  UNL1        0.0000
     17 F           1.0138   -1.8512   -3.5760 F       1  UNL1        0.0000
     18 F          -3.0060   -0.3701   -2.3042 F       1  UNL1        0.0000
     19 F          -2.4978   -1.9698   -4.2760 F       1  UNL1        0.0000
     20 F          -3.6114   -4.6924   -2.3125 F       1  UNL1        0.0000
     21 F          -4.1583   -3.0703   -0.3909 F       1  UNL1        0.0000
     22 F          -1.6767   -6.0887    0.3476 F       1  UNL1        0.0000
     23 F           0.1177   -4.7125   -0.8676 F       1  UNL1        0.0000
     24 F          -0.3790   -4.2865    3.2357 F       1  UNL1        0.0000
     25 F          -2.3408   -2.7592    2.6052 F       1  UNL1        0.0000
@<TRIPOS>BOND
     1     1     3    1
     2     1     2    1
     3     2    24    1
     4     2     7    1
     5     2    25    1
     6     3    10    1
     7     3    11    1
     8     3     4    1
     9     4    12    1
    10     4     5    1
    11     4    13    1
    12     5    15    1
    13     5    14    1
    14     5     8    1
    15     6    20    1
    16     6     7    1
    17     6     9    1
    18     6    21    1
    19     7    22    1
    20     7    23    1
    21     8     9    1
    22     8    16    1
    23     8    17    1
    24     9    19    1
    25     9    18    1
@<TRIPOS>MOLECULE
S_SiF2_8_cyclic
 25 25 0 0 0
SMALL
GASTEIGER
****
Schrodinger Suite 2023-1.
@<TRIPOS>ATOM
      1 S           0.4314   -1.6081    2.0830 S.3     1  UNL1        0.0000
      2 SI          1.3406   -3.2938    3.0198 Si      1  UNL1        0.0000
      3 SI         -1.4224   -1.7627    3.1727 Si      1  UNL1        0.0000
      4 SI         -1.5925   -0.7713    5.4133 Si      1  UNL1        0.0000
      5 SI         -0.8141   -2.2988    7.0885 Si      1  UNL1        0.0000
      6 SI          4.5178   -1.8933    4.7937 Si      1  UNL1        0.0000
      7 SI          3.7718   -3.3942    3.0806 Si      1  UNL1        0.0000
      8 SI          1.5827   -2.3263    7.3743 Si      1  UNL1        0.0000
      9 SI          2.6652   -0.8256    5.8748 Si      1  UNL1        0.0000
     10 F          -1.7871   -3.3343    3.2588 F       1  UNL1        0.0000
     11 F          -2.5528   -1.1216    2.2117 F       1  UNL1        0.0000
     12 F          -3.1357   -0.3867    5.7321 F       1  UNL1        0.0000
     13 F          -0.7861    0.6297    5.5401 F       1  UNL1        0.0000
     14 F          -1.5163   -1.9509    8.5072 F       1  UNL1        0.0000
     15 F          -1.3288   -3.7896    6.7165 F       1  UNL1        0.0000
     16 F           2.1583   -3.8089    7.0604 F       1  UNL1        0.0000
     17 F           1.9976   -1.9994    8.9057 F       1  UNL1        0.0000
     18 F           1.5899   -0.3999    4.7469 F       1  UNL1        0.0000
     19 F           3.1046    0.5372    6.6311 F       1  UNL1        0.0000
     20 F           5.3922   -2.6940    5.8980 F       1  UNL1        0.0000
     21 F           5.5127   -0.7783    4.1668 F       1  UNL1        0.0000
     22 F           4.4258   -3.0101    1.6471 F       1  UNL1        0.0000
     23 F           4.2702   -4.9011    3.4143 F       1  UNL1        0.0000
     24 F           0.8208   -3.1979    4.5491 F       1  UNL1        0.0000
     25 F           0.6985   -4.6378    2.3978 F       1  UNL1        0.0000
@<TRIPOS>BOND
     1     1     3    1
     2     1     2    1
     3     2    24    1
     4     2     7    1
     5     2    25    1
     6     3    10    1
     7     3    11    1
     8     3     4    1
     9     4    12    1
    10     4     5    1
    11     4    13    1
    12     5    15    1
    13     5    14    1
    14     5     8    1
    15     6    20    1
    16     6     7    1
    17     6     9    1
    18     6    21    1
    19     7    22    1
    20     7    23    1
    21     8     9    1
    22     8    16    1
    23     8    17    1
    24     9    19    1
    25     9    18    1
@<TRIPOS>MOLECULE
S_SiF2_8_cyclic
 25 25 0 0 0
SMALL
GASTEIGER
****
Schrodinger Suite 2023-1.
@<TRIPOS>ATOM
      1 S           0.4318   -1.6079    2.0831 S.3     1  UNL1        0.0000
      2 SI          0.9074   -3.6773    2.4554 Si      1  UNL1        0.0000
      3 SI         -0.4634   -1.9605    0.1805 Si      1  UNL1        0.0000
      4 SI         -2.0892   -0.3431   -0.6356 Si      1  UNL1        0.0000
      5 SI         -4.1459   -0.7272    0.5334 Si      1  UNL1        0.0000
      6 SI         -2.1836   -6.0879    1.6640 Si      1  UNL1        0.0000
      7 SI         -0.8098   -5.1605    3.3955 Si      1  UNL1        0.0000
      8 SI         -3.9377   -2.5517    2.0722 Si      1  UNL1        0.0000
      9 SI         -3.9624   -4.6356    0.9194 Si      1  UNL1        0.0000
     10 F          -1.2384   -3.3659    0.3863 F       1  UNL1        0.0000
     11 F           0.7070   -2.2329   -0.8972 F       1  UNL1        0.0000
     12 F          -2.3208   -0.5255   -2.2305 F       1  UNL1        0.0000
     13 F          -1.5783    1.1816   -0.4258 F       1  UNL1        0.0000
     14 F          -4.6013    0.6139    1.3207 F       1  UNL1        0.0000
     15 F          -5.3365   -1.0476   -0.5179 F       1  UNL1        0.0000
     16 F          -5.0752   -2.5099    3.2240 F       1  UNL1        0.0000
     17 F          -2.5144   -2.4259    2.8260 F       1  UNL1        0.0000
     18 F          -5.4082   -5.3511    1.0665 F       1  UNL1        0.0000
     19 F          -3.7827   -4.3077   -0.6581 F       1  UNL1        0.0000
     20 F          -1.2437   -6.4778    0.4029 F       1  UNL1        0.0000
     21 F          -2.8173   -7.4915    2.1688 F       1  UNL1        0.0000
     22 F          -1.7460   -4.4176    4.4912 F       1  UNL1        0.0000
     23 F          -0.1065   -6.3731    4.2117 F       1  UNL1        0.0000
     24 F           1.4370   -4.2962    1.0601 F       1  UNL1        0.0000
     25 F           2.1997   -3.6645    3.4261 F       1  UNL1        0.0000
@<TRIPOS>BOND
     1     1     3    1
     2     1     2    1
     3     2    24    1
     4     2     7    1
     5     2    25    1
     6     3    10    1
     7     3    11    1
     8     3     4    1
     9     4    12    1
    10     4     5    1
    11     4    13    1
    12     5    15    1
    13     5    14    1
    14     5     8    1
    15     6    20    1
    16     6     7    1
    17     6     9    1
    18     6    21    1
    19     7    22    1
    20     7    23    1
    21     8     9    1
    22     8    16    1
    23     8    17    1
    24     9    19    1
    25     9    18    1
@<TRIPOS>MOLECULE
S_SiF2_8_cyclic
 25 25 0 0 0
SMALL
GASTEIGER
****
Schrodinger Suite 2023-1.
@<TRIPOS>ATOM
      1 S           0.4319   -1.6085    2.0833 S.3     1  UNL1        0.0000
      2 SI          1.5641   -2.4281    0.4421 Si      1  UNL1        0.0000
      3 SI          1.7340    0.0498    2.3997 Si      1  UNL1        0.0000
      4 SI          0.8188    2.0325    3.4746 Si      1  UNL1        0.0000
      5 SI         -0.4788    3.2111    1.8402 Si      1  UNL1        0.0000
      6 SI          2.5740    0.3770   -2.2235 Si      1  UNL1        0.0000
      7 SI          1.2095   -1.5530   -1.8252 Si      1  UNL1        0.0000
      8 SI         -0.4309    2.0880   -0.2758 Si      1  UNL1        0.0000
      9 SI          1.6536    2.4402   -1.3728 Si      1  UNL1        0.0000
     10 F           2.1753    0.4704    0.9008 F       1  UNL1        0.0000
     11 F           3.0672   -0.4760    3.1425 F       1  UNL1        0.0000
     12 F           2.0125    2.9852    4.0205 F       1  UNL1        0.0000
     13 F          -0.0828    1.6534    4.7682 F       1  UNL1        0.0000
     14 F          -2.0088    3.3710    2.3494 F       1  UNL1        0.0000
     15 F           0.0855    4.7189    1.6583 F       1  UNL1        0.0000
     16 F          -1.6689    2.5238   -1.2244 F       1  UNL1        0.0000
     17 F          -0.5859    0.5009   -0.0173 F       1  UNL1        0.0000
     18 F           1.5000    3.5454   -2.5471 F       1  UNL1        0.0000
     19 F           2.6625    3.0847   -0.2796 F       1  UNL1        0.0000
     20 F           4.0349    0.1288   -1.5678 F       1  UNL1        0.0000
     21 F           2.8449    0.5299   -3.8140 F       1  UNL1        0.0000
     22 F          -0.3431   -1.1896   -2.1194 F       1  UNL1        0.0000
     23 F           1.5793   -2.6905   -2.9208 F       1  UNL1        0.0000
     24 F           3.1259   -2.2817    0.8290 F       1  UNL1        0.0000
     25 F           1.2751   -4.0182    0.4581 F       1  UNL1        0.0000
@<TRIPOS>BOND
     1     1     3    1
     2     1     2    1
     3     2    24    1
     4     2     7    1
     5     2    25    1
     6     3    10    1
     7     3    11    1
     8     3     4    1
     9     4    12    1
    10     4     5    1
    11     4    13    1
    12     5    15    1
    13     5    14    1
    14     5     8    1
    15     6    20    1
    16     6     7    1
    17     6     9    1
    18     6    21    1
    19     7    22    1
    20     7    23    1
    21     8     9    1
    22     8    16    1
    23     8    17    1
    24     9    19    1
    25     9    18    1
@<TRIPOS>MOLECULE
S_SiF2_8_cyclic
 25 25 0 0 0
SMALL
GASTEIGER
****
Schrodinger Suite 2023-1.
@<TRIPOS>ATOM
      1 S           0.4316   -1.6080    2.0832 S.3     1  UNL1        0.0000
      2 SI          0.1600   -1.5011   -0.0347 Si      1  UNL1        0.0000
      3 SI         -1.1615   -0.2410    2.5572 Si      1  UNL1        0.0000
      4 SI         -0.6170    2.1413    2.7217 Si      1  UNL1        0.0000
      5 SI         -0.0093    3.0458    0.5942 Si      1  UNL1        0.0000
      6 SI          1.6851   -0.2413   -3.1739 Si      1  UNL1        0.0000
      7 SI          2.0488   -1.8970   -1.5011 Si      1  UNL1        0.0000
      8 SI          2.1230    2.1852   -0.0622 Si      1  UNL1        0.0000
      9 SI          2.3324    1.9575   -2.4332 Si      1  UNL1        0.0000
     10 F          -1.7810   -0.7516    3.9601 F       1  UNL1        0.0000
     11 F          -2.3417   -0.4618    1.4753 F       1  UNL1        0.0000
     12 F           0.6014    2.3842    3.7641 F       1  UNL1        0.0000
     13 F          -1.8737    2.9718    3.3241 F       1  UNL1        0.0000
     14 F          -1.1209    2.6704   -0.5231 F       1  UNL1        0.0000
     15 F           0.0345    4.6649    0.6433 F       1  UNL1        0.0000
     16 F           2.3112    0.7145    0.5854 F       1  UNL1        0.0000
     17 F           3.3183    3.0917    0.5474 F       1  UNL1        0.0000
     18 F           1.4333    3.0885   -3.1656 F       1  UNL1        0.0000
     19 F           3.8630    2.2513   -2.8757 F       1  UNL1        0.0000
     20 F           2.4626   -0.6319   -4.5411 F       1  UNL1        0.0000
     21 F           0.1086   -0.2364   -3.5469 F       1  UNL1        0.0000
     22 F           2.0563   -3.3947   -2.1241 F       1  UNL1        0.0000
     23 F           3.4807   -1.6529   -0.7804 F       1  UNL1        0.0000
     24 F          -1.1152   -2.4026   -0.4442 F       1  UNL1        0.0000
     25 F          -0.2640    0.0377   -0.3011 F       1  UNL1        0.0000
@<TRIPOS>BOND
     1     1     3    1
     2     1     2    1
     3     2    24    1
     4     2     7    1
     5     2    25    1
     6     3    10    1
     7     3    11    1
     8     3     4    1
     9     4    12    1
    10     4     5    1
    11     4    13    1
    12     5    15    1
    13     5    14    1
    14     5     8    1
    15     6    20    1
    16     6     7    1
    17     6     9    1
    18     6    21    1
    19     7    22    1
    20     7    23    1
    21     8     9    1
    22     8    16    1
    23     8    17    1
    24     9    19    1
    25     9    18    1
@<TRIPOS>MOLECULE
S_SiF2_8_cyclic
 25 25 0 0 0
SMALL
GASTEIGER
****
Schrodinger Suite 2023-1.
@<TRIPOS>ATOM
      1 S           0.4316   -1.6081    2.0832 S.3     1  UNL1        0.0000
      2 SI         -0.6897   -3.3760    2.5169 Si      1  UNL1        0.0000
      3 SI         -1.1612   -0.2409    2.5572 Si      1  UNL1        0.0000
      4 SI         -2.6816    0.4176    0.7534 Si      1  UNL1        0.0000
      5 SI         -4.0165   -1.4253    0.0213 Si      1  UNL1        0.0000
      6 SI         -2.3094   -6.3320    0.9644 Si      1  UNL1        0.0000
      7 SI         -0.1387   -5.4460    1.3827 Si      1  UNL1        0.0000
      8 SI         -2.6437   -2.9911   -1.1542 Si      1  UNL1        0.0000
      9 SI         -3.3919   -5.2472   -0.8941 Si      1  UNL1        0.0000
     10 F          -0.4488    1.0741    3.1700 F       1  UNL1        0.0000
     11 F          -2.0040   -0.8690    3.7850 F       1  UNL1        0.0000
     12 F          -1.8551    1.0041   -0.5127 F       1  UNL1        0.0000
     13 F          -3.6480    1.6275    1.2372 F       1  UNL1        0.0000
     14 F          -4.7235   -2.1540    1.2839 F       1  UNL1        0.0000
     15 F          -5.2279   -0.9222   -0.9302 F       1  UNL1        0.0000
     16 F          -1.1392   -2.9074   -0.5649 F       1  UNL1        0.0000
     17 F          -2.5276   -2.5888   -2.7185 F       1  UNL1        0.0000
     18 F          -5.0000   -5.2638   -0.7002 F       1  UNL1        0.0000
     19 F          -3.0996   -6.0783   -2.2537 F       1  UNL1        0.0000
     20 F          -2.2348   -7.9328    0.7228 F       1  UNL1        0.0000
     21 F          -3.2057   -6.1268    2.2982 F       1  UNL1        0.0000
     22 F           0.7558   -6.4435    2.2971 F       1  UNL1        0.0000
     23 F           0.6473   -5.2188   -0.0173 F       1  UNL1        0.0000
     24 F          -0.7597   -3.5709    4.1180 F       1  UNL1        0.0000
     25 F          -2.1925   -3.0188    2.0342 F       1  UNL1        0.0000
@<TRIPOS>BOND
     1     1     3    1
     2     1     2    1
     3     2    24    1
     4     2     7    1
     5     2    25    1
     6     3    10    1
     7     3    11    1
     8     3     4    1
     9     4    12    1
    10     4     5    1
    11     4    13    1
    12     5    15    1
    13     5    14    1
    14     5     8    1
    15     6    20    1
    16     6     7    1
    17     6     9    1
    18     6    21    1
    19     7    22    1
    20     7    23    1
    21     8     9    1
    22     8    16    1
    23     8    17    1
    24     9    19    1
    25     9    18    1
@<TRIPOS>MOLECULE
S_SiF2_8_cyclic
 25 25 0 0 0
SMALL
GASTEIGER
****
Schrodinger Suite 2023-1.
@<TRIPOS>ATOM
      1 S           0.4317   -1.6080    2.0833 S.3     1  UNL1        0.0000
      2 SI          0.3208   -3.5208    3.0627 Si      1  UNL1        0.0000
      3 SI         -1.5816   -1.0418    2.5268 Si      1  UNL1        0.0000
      4 SI         -2.7428    0.4889    1.0491 Si      1  UNL1        0.0000
      5 SI         -4.9196   -0.4765    1.0068 Si      1  UNL1        0.0000
      6 SI         -2.6862   -5.2604    1.0836 Si      1  UNL1        0.0000
      7 SI         -0.3935   -5.4496    1.7329 Si      1  UNL1        0.0000
      8 SI         -5.0272   -2.4149   -0.4192 Si      1  UNL1        0.0000
      9 SI         -2.9160   -3.5297   -0.5505 Si      1  UNL1        0.0000
     10 F          -1.6631   -0.5649    4.0670 F       1  UNL1        0.0000
     11 F          -2.4112   -2.4280    2.4332 F       1  UNL1        0.0000
     12 F          -2.1230    0.5261   -0.4488 F       1  UNL1        0.0000
     13 F          -2.7665    2.0094    1.6137 F       1  UNL1        0.0000
     14 F          -5.3136   -0.9036    2.5190 F       1  UNL1        0.0000
     15 F          -6.0218    0.6226    0.5555 F       1  UNL1        0.0000
     16 F          -5.5026   -1.9720   -1.9033 F       1  UNL1        0.0000
     17 F          -6.1519   -3.4500    0.1172 F       1  UNL1        0.0000
     18 F          -2.6508   -4.1093   -2.0391 F       1  UNL1        0.0000
     19 F          -1.7649   -2.4209   -0.2981 F       1  UNL1        0.0000
     20 F          -3.2387   -6.6635    0.4902 F       1  UNL1        0.0000
     21 F          -3.6169   -4.9302    2.3680 F       1  UNL1        0.0000
     22 F          -0.1784   -6.8254    2.5652 F       1  UNL1        0.0000
     23 F           0.5195   -5.6025    0.4014 F       1  UNL1        0.0000
     24 F           1.7951   -3.7964    3.6652 F       1  UNL1        0.0000
     25 F          -0.6348   -3.3603    4.3562 F       1  UNL1        0.0000
@<TRIPOS>BOND
     1     1     3    1
     2     1     2    1
     3     2    24    1
     4     2     7    1
     5     2    25    1
     6     3    10    1
     7     3    11    1
     8     3     4    1
     9     4    12    1
    10     4     5    1
    11     4    13    1
    12     5    15    1
    13     5    14    1
    14     5     8    1
    15     6    20    1
    16     6     7    1
    17     6     9    1
    18     6    21    1
    19     7    22    1
    20     7    23    1
    21     8     9    1
    22     8    16    1
    23     8    17    1
    24     9    19    1
    25     9    18    1
@<TRIPOS>MOLECULE
S_SiF2_8_cyclic
 25 25 0 0 0
SMALL
GASTEIGER
****
Schrodinger Suite 2023-1.
@<TRIPOS>ATOM
      1 S           0.4314   -1.6079    2.0832 S.3     1  UNL1        0.0000
      2 SI          0.6499    0.3843    1.2994 Si      1  UNL1        0.0000
      3 SI         -1.6338   -1.3940    2.5933 Si      1  UNL1        0.0000
      4 SI         -2.5570   -2.7099    4.4073 Si      1  UNL1        0.0000
      5 SI         -3.9807   -1.1132    5.4542 Si      1  UNL1        0.0000
      6 SI         -0.3702    2.6064    4.4634 Si      1  UNL1        0.0000
      7 SI          1.3317    2.1569    2.8462 Si      1  UNL1        0.0000
      8 SI         -2.7500    0.4494    6.8128 Si      1  UNL1        0.0000
      9 SI         -0.5286    0.7721    5.9894 Si      1  UNL1        0.0000
     10 F          -2.5200   -1.5215    1.2499 F       1  UNL1        0.0000
     11 F          -1.7625    0.1436    3.0812 F       1  UNL1        0.0000
     12 F          -1.4354   -3.2267    5.4581 F       1  UNL1        0.0000
     13 F          -3.3820   -4.0055    3.8858 F       1  UNL1        0.0000
     14 F          -4.7730   -0.3047    4.2954 F       1  UNL1        0.0000
     15 F          -5.1205   -1.8565    6.3344 F       1  UNL1        0.0000
     16 F          -2.6924   -0.0866    8.3406 F       1  UNL1        0.0000
     17 F          -3.5169    1.8751    6.8706 F       1  UNL1        0.0000
     18 F           0.5273    0.9461    7.2047 F       1  UNL1        0.0000
     19 F          -0.0947   -0.5831    5.2192 F       1  UNL1        0.0000
     20 F          -0.0568    3.9765    5.2699 F       1  UNL1        0.0000
     21 F          -1.7992    2.8417    3.7369 F       1  UNL1        0.0000
     22 F           1.6797    3.5177    2.0343 F       1  UNL1        0.0000
     23 F           2.6987    1.7533    3.6197 F       1  UNL1        0.0000
     24 F           1.7257    0.2724    0.0983 F       1  UNL1        0.0000
     25 F          -0.7393    0.7879    0.5787 F       1  UNL1        0.0000
@<TRIPOS>BOND
     1     1     3    1
     2     1     2    1
     3     2    24    1
     4     2     7    1
     5     2    25    1
     6     3    10    1
     7     3    11    1
     8     3     4    1
     9     4    12    1
    10     4     5    1
    11     4    13    1
    12     5    15    1
    13     5    14    1
    14     5     8    1
    15     6    20    1
    16     6     7    1
    17     6     9    1
    18     6    21    1
    19     7    22    1
    20     7    23    1
    21     8     9    1
    22     8    16    1
    23     8    17    1
    24     9    19    1
    25     9    18    1
@<TRIPOS>MOLECULE
S_SiF2_8_cyclic
 25 25 0 0 0
SMALL
GASTEIGER
****
Schrodinger Suite 2023-1.
@<TRIPOS>ATOM
      1 S           0.4315   -1.6080    2.0832 S.3     1  UNL1        0.0000
      2 SI          0.1123   -1.1159    4.1502 Si      1  UNL1        0.0000
      3 SI          1.8408   -0.0374    1.7435 Si      1  UNL1        0.0000
      4 SI          3.3976   -0.2533   -0.1176 Si      1  UNL1        0.0000
      5 SI          5.4698   -1.0450    0.7806 Si      1  UNL1        0.0000
      6 SI          3.7382   -2.5776    4.5691 Si      1  UNL1        0.0000
      7 SI          1.9561   -1.4839    5.7167 Si      1  UNL1        0.0000
      8 SI          5.9883    0.1227    2.8044 Si      1  UNL1        0.0000
      9 SI          5.7617   -1.3157    4.7182 Si      1  UNL1        0.0000
     10 F           2.7066   -0.0010    3.1105 F       1  UNL1        0.0000
     11 F           1.0372    1.3614    1.6920 F       1  UNL1        0.0000
     12 F           3.6317    1.1807   -0.8384 F       1  UNL1        0.0000
     13 F           2.8432   -1.2536   -1.2676 F       1  UNL1        0.0000
     14 F           5.4046   -2.6331    1.0901 F       1  UNL1        0.0000
     15 F           6.6644   -0.8572   -0.2980 F       1  UNL1        0.0000
     16 F           4.9925    1.3951    2.9256 F       1  UNL1        0.0000
     17 F           7.4816    0.7466    2.7327 F       1  UNL1        0.0000
     18 F           7.0339   -2.3155    4.8016 F       1  UNL1        0.0000
     19 F           5.7780   -0.4526    6.0888 F       1  UNL1        0.0000
     20 F           3.9456   -4.0896    5.1127 F       1  UNL1        0.0000
     21 F           3.3753   -2.7038    2.9954 F       1  UNL1        0.0000
     22 F           1.4908   -2.3499    7.0067 F       1  UNL1        0.0000
     23 F           2.5002   -0.0721    6.2997 F       1  UNL1        0.0000
     24 F          -0.3310    0.4376    4.1838 F       1  UNL1        0.0000
     25 F          -1.1857   -1.9538    4.6251 F       1  UNL1        0.0000
@<TRIPOS>BOND
     1     1     3    1
     2     1     2    1
     3     2    24    1
     4     2     7    1
     5     2    25    1
     6     3    10    1
     7     3    11    1
     8     3     4    1
     9     4    12    1
    10     4     5    1
    11     4    13    1
    12     5    15    1
    13     5    14    1
    14     5     8    1
    15     6    20    1
    16     6     7    1
    17     6     9    1
    18     6    21    1
    19     7    22    1
    20     7    23    1
    21     8     9    1
    22     8    16    1
    23     8    17    1
    24     9    19    1
    25     9    18    1
@<TRIPOS>MOLECULE
S_SiF2_8_cyclic
 25 25 0 0 0
SMALL
GASTEIGER
****
Schrodinger Suite 2023-1.
@<TRIPOS>ATOM
      1 S           0.4318   -1.6080    2.0832 S.3     1  UNL1        0.0000
      2 SI          0.0476    0.0879    0.8404 Si      1  UNL1        0.0000
      3 SI          0.2030   -3.0430    0.5005 Si      1  UNL1        0.0000
      4 SI         -2.0308   -3.3622   -0.4469 Si      1  UNL1        0.0000
      5 SI         -3.5978   -2.0923    0.8260 Si      1  UNL1        0.0000
      6 SI         -3.0877    2.2402    1.6460 Si      1  UNL1        0.0000
      7 SI         -0.7085    2.1521    1.8900 Si      1  UNL1        0.0000
      8 SI         -4.7977   -0.5629   -0.5633 Si      1  UNL1        0.0000
      9 SI         -3.7123    1.5830   -0.5689 Si      1  UNL1        0.0000
     10 F           0.7614   -4.4480    1.0721 F       1  UNL1        0.0000
     11 F           1.2324   -2.6021   -0.6645 F       1  UNL1        0.0000
     12 F          -2.4564   -4.9269   -0.4807 F       1  UNL1        0.0000
     13 F          -2.0759   -2.8540   -1.9860 F       1  UNL1        0.0000
     14 F          -4.6065   -3.0581    1.6472 F       1  UNL1        0.0000
     15 F          -2.8107   -1.2078    1.9316 F       1  UNL1        0.0000
     16 F          -6.3183   -0.4027   -0.0275 F       1  UNL1        0.0000
     17 F          -4.9112   -1.1516   -2.0682 F       1  UNL1        0.0000
     18 F          -2.3750    1.5439   -1.4829 F       1  UNL1        0.0000
     19 F          -4.6667    2.7037   -1.2453 F       1  UNL1        0.0000
     20 F          -3.8215    1.2665    2.7117 F       1  UNL1        0.0000
     21 F          -3.6358    3.7314    1.9650 F       1  UNL1        0.0000
     22 F          -0.0411    3.4410    1.1662 F       1  UNL1        0.0000
     23 F          -0.2813    2.2375    3.4522 F       1  UNL1        0.0000
     24 F           1.3386    0.3314   -0.0970 F       1  UNL1        0.0000
     25 F          -1.1279   -0.4231   -0.1478 F       1  UNL1        0.0000
@<TRIPOS>BOND
     1     1     3    1
     2     1     2    1
     3     2    24    1
     4     2     7    1
     5     2    25    1
     6     3    10    1
     7     3    11    1
     8     3     4    1
     9     4    12    1
    10     4     5    1
    11     4    13    1
    12     5    15    1
    13     5    14    1
    14     5     8    1
    15     6    20    1
    16     6     7    1
    17     6     9    1
    18     6    21    1
    19     7    22    1
    20     7    23    1
    21     8     9    1
    22     8    16    1
    23     8    17    1
    24     9    19    1
    25     9    18    1
@<TRIPOS>MOLECULE
S_SiF2_8_cyclic
 25 25 0 0 0
SMALL
GASTEIGER
****
Schrodinger Suite 2023-1.
@<TRIPOS>ATOM
      1 S           0.4316   -1.6082    2.0832 S.3     1  UNL1        0.0000
      2 SI          0.6230   -2.2566    0.0672 Si      1  UNL1        0.0000
      3 SI         -1.1769   -2.9542    2.5589 Si      1  UNL1        0.0000
      4 SI         -0.9050   -5.3566    2.1749 Si      1  UNL1        0.0000
      5 SI          1.2758   -6.0356    2.8755 Si      1  UNL1        0.0000
      6 SI          3.9660   -3.2099   -1.3447 Si      1  UNL1        0.0000
      7 SI          2.4257   -1.3887   -1.3011 Si      1  UNL1        0.0000
      8 SI          2.8187   -6.1797    1.0386 Si      1  UNL1        0.0000
      9 SI          4.1003   -4.1646    0.8476 Si      1  UNL1        0.0000
     10 F          -2.4684   -2.4111    1.7538 F       1  UNL1        0.0000
     11 F          -1.5091   -2.7063    4.1210 F       1  UNL1        0.0000
     12 F          -1.1144   -5.7188    0.6076 F       1  UNL1        0.0000
     13 F          -2.0399   -6.2028    2.9667 F       1  UNL1        0.0000
     14 F           1.8376   -4.9955    3.9816 F       1  UNL1        0.0000
     15 F           1.1890   -7.4664    3.6321 F       1  UNL1        0.0000
     16 F           2.0089   -6.4320   -0.3414 F       1  UNL1        0.0000
     17 F           3.8017   -7.4563    1.2108 F       1  UNL1        0.0000
     18 F           3.5105   -3.0773    1.8896 F       1  UNL1        0.0000
     19 F           5.6410   -4.4154    1.2807 F       1  UNL1        0.0000
     20 F           3.4609   -4.3323   -2.3977 F       1  UNL1        0.0000
     21 F           5.4238   -2.7250   -1.8609 F       1  UNL1        0.0000
     22 F           3.1038   -0.0594   -0.6665 F       1  UNL1        0.0000
     23 F           1.9247   -1.0071   -2.7961 F       1  UNL1        0.0000
     24 F           0.9276   -3.8296    0.2732 F       1  UNL1        0.0000
     25 F          -0.8177   -2.1825   -0.6552 F       1  UNL1        0.0000
@<TRIPOS>BOND
     1     1     3    1
     2     1     2    1
     3     2    24    1
     4     2     7    1
     5     2    25    1
     6     3    10    1
     7     3    11    1
     8     3     4    1
     9     4    12    1
    10     4     5    1
    11     4    13    1
    12     5    15    1
    13     5    14    1
    14     5     8    1
    15     6    20    1
    16     6     7    1
    17     6     9    1
    18     6    21    1
    19     7    22    1
    20     7    23    1
    21     8     9    1
    22     8    16    1
    23     8    17    1
    24     9    19    1
    25     9    18    1
@<TRIPOS>MOLECULE
S_SiF2_8_cyclic
 25 25 0 0 0
SMALL
GASTEIGER
****
Schrodinger Suite 2023-1.
@<TRIPOS>ATOM
      1 S           0.4316   -1.6081    2.0835 S.3     1  UNL1        0.0000
      2 SI         -0.7010   -3.4055    1.9946 Si      1  UNL1        0.0000
      3 SI         -1.2637   -0.3080    1.8364 Si      1  UNL1        0.0000
      4 SI         -3.1769   -0.5044    3.3511 Si      1  UNL1        0.0000
      5 SI         -2.3964   -0.7998    5.5897 Si      1  UNL1        0.0000
      6 SI         -0.3126   -6.0657    4.6118 Si      1  UNL1        0.0000
      7 SI          0.3949   -5.5295    2.3974 Si      1  UNL1        0.0000
      8 SI         -2.4006   -3.1080    6.2584 Si      1  UNL1        0.0000
      9 SI         -0.2335   -4.0829    5.9528 Si      1  UNL1        0.0000
     10 F          -1.7516   -0.4937    0.3071 F       1  UNL1        0.0000
     11 F          -0.6790    1.1962    1.9210 F       1  UNL1        0.0000
     12 F          -4.1211   -1.7547    2.9308 F       1  UNL1        0.0000
     13 F          -4.1297    0.8048    3.2550 F       1  UNL1        0.0000
     14 F          -0.9016   -0.1932    5.7265 F       1  UNL1        0.0000
     15 F          -3.3101    0.0681    6.6090 F       1  UNL1        0.0000
     16 F          -3.4866   -3.9322    5.3836 F       1  UNL1        0.0000
     17 F          -2.8727   -3.2600    7.8010 F       1  UNL1        0.0000
     18 F           0.7098   -3.0147    5.1881 F       1  UNL1        0.0000
     19 F           0.4768   -4.3726    7.3796 F       1  UNL1        0.0000
     20 F          -1.8259   -6.6426    4.5810 F       1  UNL1        0.0000
     21 F           0.6085   -7.2379    5.2476 F       1  UNL1        0.0000
     22 F           2.0103   -5.4233    2.3054 F       1  UNL1        0.0000
     23 F          -0.0745   -6.6660    1.3392 F       1  UNL1        0.0000
     24 F          -1.7297   -3.1867    3.2208 F       1  UNL1        0.0000
     25 F          -1.6067   -3.3988    0.6595 F       1  UNL1        0.0000
@<TRIPOS>BOND
     1     1     3    1
     2     1     2    1
     3     2    24    1
     4     2     7    1
     5     2    25    1
     6     3    10    1
     7     3    11    1
     8     3     4    1
     9     4    12    1
    10     4     5    1
    11     4    13    1
    12     5    15    1
    13     5    14    1
    14     5     8    1
    15     6    20    1
    16     6     7    1
    17     6     9    1
    18     6    21    1
    19     7    22    1
    20     7    23    1
    21     8     9    1
    22     8    16    1
    23     8    17    1
    24     9    19    1
    25     9    18    1
@<TRIPOS>MOLECULE
S_SiF2_8_cyclic
 25 25 0 0 0
SMALL
GASTEIGER
****
Schrodinger Suite 2023-1.
@<TRIPOS>ATOM
      1 S           0.4315   -1.6080    2.0832 S.3     1  UNL1        0.0000
      2 SI          1.4286    0.0913    1.2835 Si      1  UNL1        0.0000
      3 SI         -0.4762   -0.5398    3.7143 Si      1  UNL1        0.0000
      4 SI         -1.8343    1.4458    3.2604 Si      1  UNL1        0.0000
      5 SI         -3.2282    1.0442    1.3621 Si      1  UNL1        0.0000
      6 SI          1.1518    0.9511   -2.3590 Si      1  UNL1        0.0000
      7 SI          2.6301   -0.1046   -0.8125 Si      1  UNL1        0.0000
      8 SI         -2.3003    1.9557   -0.6586 Si      1  UNL1        0.0000
      9 SI         -1.0938    0.2773   -1.8698 Si      1  UNL1        0.0000
     10 F           0.7251   -0.1647    4.7278 F       1  UNL1        0.0000
     11 F          -1.3790   -1.6250    4.5011 F       1  UNL1        0.0000
     12 F          -0.8939    2.7388    2.9858 F       1  UNL1        0.0000
     13 F          -2.7375    1.8379    4.5495 F       1  UNL1        0.0000
     14 F          -3.4602   -0.5485    1.1878 F       1  UNL1        0.0000
     15 F          -4.7009    1.6699    1.6201 F       1  UNL1        0.0000
     16 F          -1.3019    3.1804   -0.3021 F       1  UNL1        0.0000
     17 F          -3.4629    2.5937   -1.5898 F       1  UNL1        0.0000
     18 F          -1.0149   -1.0582   -0.9610 F       1  UNL1        0.0000
     19 F          -1.8839   -0.1418   -3.2205 F       1  UNL1        0.0000
     20 F           1.2779    2.5607   -2.2293 F       1  UNL1        0.0000
     21 F           1.5516    0.5849   -3.8863 F       1  UNL1        0.0000
     22 F           2.9113   -1.6471   -1.2263 F       1  UNL1        0.0000
     23 F           4.0651    0.6503   -0.7631 F       1  UNL1        0.0000
     24 F           0.1823    1.0795    1.0006 F       1  UNL1        0.0000
     25 F           2.2910    0.7998    2.4484 F       1  UNL1        0.0000
@<TRIPOS>BOND
     1     1     3    1
     2     1     2    1
     3     2    24    1
     4     2     7    1
     5     2    25    1
     6     3    10    1
     7     3    11    1
     8     3     4    1
     9     4    12    1
    10     4     5    1
    11     4    13    1
    12     5    15    1
    13     5    14    1
    14     5     8    1
    15     6    20    1
    16     6     7    1
    17     6     9    1
    18     6    21    1
    19     7    22    1
    20     7    23    1
    21     8     9    1
    22     8    16    1
    23     8    17    1
    24     9    19    1
    25     9    18    1
@<TRIPOS>MOLECULE
S_SiF2_8_cyclic
 25 25 0 0 0
SMALL
GASTEIGER
****
Schrodinger Suite 2023-1.
@<TRIPOS>ATOM
      1 S           0.4316   -1.6082    2.0831 S.3     1  UNL1        0.0000
      2 SI          0.0545   -3.6732    1.6844 Si      1  UNL1        0.0000
      3 SI          0.0963   -0.9199    0.0811 Si      1  UNL1        0.0000
      4 SI          2.0930   -1.0948   -1.2804 Si      1  UNL1        0.0000
      5 SI          3.6848   -2.1232    0.1702 Si      1  UNL1        0.0000
      6 SI          2.3069   -3.5359    4.7741 Si      1  UNL1        0.0000
      7 SI          1.3500   -5.0583    3.1901 Si      1  UNL1        0.0000
      8 SI          4.0986   -0.8504    2.1401 Si      1  UNL1        0.0000
      9 SI          4.2887   -2.3838    3.9941 Si      1  UNL1        0.0000
     10 F          -0.3851    0.6187    0.1872 F       1  UNL1        0.0000
     11 F          -1.1451   -1.7455   -0.5421 F       1  UNL1        0.0000
     12 F           2.6252    0.3534   -1.7802 F       1  UNL1        0.0000
     13 F           1.8478   -1.9939   -2.6082 F       1  UNL1        0.0000
     14 F           3.1242   -3.5576    0.6763 F       1  UNL1        0.0000
     15 F           5.0675   -2.4451   -0.6103 F       1  UNL1        0.0000
     16 F           2.9491    0.2681    2.3580 F       1  UNL1        0.0000
     17 F           5.4732   -0.0122    1.9557 F       1  UNL1        0.0000
     18 F           5.3728   -3.5115    3.5723 F       1  UNL1        0.0000
     19 F           4.9746   -1.6108    5.2428 F       1  UNL1        0.0000
     20 F           1.1902   -2.4743    5.2719 F       1  UNL1        0.0000
     21 F           2.6895   -4.3691    6.1111 F       1  UNL1        0.0000
     22 F           2.5186   -5.8690    2.4109 F       1  UNL1        0.0000
     23 F           0.4261   -6.1728    3.9223 F       1  UNL1        0.0000
     24 F          -1.5340   -3.9354    1.8070 F       1  UNL1        0.0000
     25 F           0.4830   -3.9207    0.1446 F       1  UNL1        0.0000
@<TRIPOS>BOND
     1     1     3    1
     2     1     2    1
     3     2    24    1
     4     2     7    1
     5     2    25    1
     6     3    10    1
     7     3    11    1
     8     3     4    1
     9     4    12    1
    10     4     5    1
    11     4    13    1
    12     5    15    1
    13     5    14    1
    14     5     8    1
    15     6    20    1
    16     6     7    1
    17     6     9    1
    18     6    21    1
    19     7    22    1
    20     7    23    1
    21     8     9    1
    22     8    16    1
    23     8    17    1
    24     9    19    1
    25     9    18    1
@<TRIPOS>MOLECULE
S_SiF2_8_cyclic
 25 25 0 0 0
SMALL
GASTEIGER
****
Schrodinger Suite 2023-1.
@<TRIPOS>ATOM
      1 S           0.4317   -1.6079    2.0831 S.3     1  UNL1        0.0000
      2 SI         -1.3488   -2.3003    3.0400 Si      1  UNL1        0.0000
      3 SI          0.7003    0.1240    3.3169 Si      1  UNL1        0.0000
      4 SI          1.9107   -0.3949    5.3509 Si      1  UNL1        0.0000
      5 SI          2.2369   -2.7562    5.2342 Si      1  UNL1        0.0000
      6 SI          0.2929   -5.3497    1.4141 Si      1  UNL1        0.0000
      7 SI         -1.4865   -4.7130    2.8875 Si      1  UNL1        0.0000
      8 SI          3.4669   -3.4256    3.3078 Si      1  UNL1        0.0000
      9 SI          2.4759   -5.4550    2.4567 Si      1  UNL1        0.0000
     10 F          -0.7508    0.7695    3.6148 F       1  UNL1        0.0000
     11 F           1.5108    1.2084    2.4352 F       1  UNL1        0.0000
     12 F           1.0731    0.0133    6.6788 F       1  UNL1        0.0000
     13 F           3.3348    0.3769    5.4327 F       1  UNL1        0.0000
     14 F           2.9293   -3.3200    6.5861 F       1  UNL1        0.0000
     15 F           0.8038   -3.5068    5.1309 F       1  UNL1        0.0000
     16 F           5.0122   -3.6813    3.7230 F       1  UNL1        0.0000
     17 F           3.5166   -2.2360    2.2113 F       1  UNL1        0.0000
     18 F           3.5172   -6.1535    1.4296 F       1  UNL1        0.0000
     19 F           2.3735   -6.4930    3.6965 F       1  UNL1        0.0000
     20 F          -0.0545   -6.8096    0.8004 F       1  UNL1        0.0000
     21 F           0.3251   -4.3723    0.1235 F       1  UNL1        0.0000
     22 F          -2.9276   -5.1955    2.3200 F       1  UNL1        0.0000
     23 F          -1.3008   -5.4213    4.3344 F       1  UNL1        0.0000
     24 F          -1.2514   -1.8141    4.5794 F       1  UNL1        0.0000
     25 F          -2.6137   -1.5592    2.3631 F       1  UNL1        0.0000
@<TRIPOS>BOND
     1     1     3    1
     2     1     2    1
     3     2    24    1
     4     2     7    1
     5     2    25    1
     6     3    10    1
     7     3    11    1
     8     3     4    1
     9     4    12    1
    10     4     5    1
    11     4    13    1
    12     5    15    1
    13     5    14    1
    14     5     8    1
    15     6    20    1
    16     6     7    1
    17     6     9    1
    18     6    21    1
    19     7    22    1
    20     7    23    1
    21     8     9    1
    22     8    16    1
    23     8    17    1
    24     9    19    1
    25     9    18    1
@<TRIPOS>MOLECULE
S_SiF2_8_cyclic
 25 25 0 0 0
SMALL
GASTEIGER
****
Schrodinger Suite 2023-1.
@<TRIPOS>ATOM
      1 S           0.4316   -1.6080    2.0833 S.3     1  UNL1        0.0000
      2 SI          2.4991   -2.1344    1.9678 Si      1  UNL1        0.0000
      3 SI          0.7010    0.1231    3.3181 Si      1  UNL1        0.0000
      4 SI          1.2024    2.0984    2.0075 Si      1  UNL1        0.0000
      5 SI          1.3269    1.2816   -0.2315 Si      1  UNL1        0.0000
      6 SI          0.8039   -3.6201   -1.1240 Si      1  UNL1        0.0000
      7 SI          2.9539   -3.2509   -0.1322 Si      1  UNL1        0.0000
      8 SI         -0.6992    0.2622   -0.9580 Si      1  UNL1        0.0000
      9 SI         -0.1289   -1.6923   -2.2540 Si      1  UNL1        0.0000
     10 F           1.8516   -0.1992    4.4061 F       1  UNL1        0.0000
     11 F          -0.6697    0.3261    4.1489 F       1  UNL1        0.0000
     12 F           2.6009    2.7877    2.4555 F       1  UNL1        0.0000
     13 F           0.0509    3.2329    2.1403 F       1  UNL1        0.0000
     14 F           1.7859    2.4489   -1.2569 F       1  UNL1        0.0000
     15 F           2.4663    0.1334   -0.3375 F       1  UNL1        0.0000
     16 F          -1.5339    1.3168   -1.8618 F       1  UNL1        0.0000
     17 F          -1.6626   -0.0701    0.2995 F       1  UNL1        0.0000
     18 F          -1.4313   -2.1563   -3.0997 F       1  UNL1        0.0000
     19 F           0.9383   -1.2244   -3.3797 F       1  UNL1        0.0000
     20 F           0.9406   -4.8282   -2.1964 F       1  UNL1        0.0000
     21 F          -0.2318   -4.1864   -0.0156 F       1  UNL1        0.0000
     22 F           3.7508   -4.6460    0.0921 F       1  UNL1        0.0000
     23 F           3.8776   -2.3452   -1.1102 F       1  UNL1        0.0000
     24 F           3.3245   -0.7486    2.0865 F       1  UNL1        0.0000
     25 F           2.8671   -3.0439    3.2502 F       1  UNL1        0.0000
@<TRIPOS>BOND
     1     1     3    1
     2     1     2    1
     3     2    24    1
     4     2     7    1
     5     2    25    1
     6     3    10    1
     7     3    11    1
     8     3     4    1
     9     4    12    1
    10     4     5    1
    11     4    13    1
    12     5    15    1
    13     5    14    1
    14     5     8    1
    15     6    20    1
    16     6     7    1
    17     6     9    1
    18     6    21    1
    19     7    22    1
    20     7    23    1
    21     8     9    1
    22     8    16    1
    23     8    17    1
    24     9    19    1
    25     9    18    1
@<TRIPOS>MOLECULE
S_SiF2_8_cyclic
 25 25 0 0 0
SMALL
GASTEIGER
****
Schrodinger Suite 2023-1.
@<TRIPOS>ATOM
      1 S           0.4314   -1.6083    2.0832 S.3     1  UNL1        0.0000
      2 SI          1.6600   -3.1491    2.9263 Si      1  UNL1        0.0000
      3 SI         -0.7080   -1.2274    3.8500 Si      1  UNL1        0.0000
      4 SI         -2.9288   -0.4660    3.2564 Si      1  UNL1        0.0000
      5 SI         -2.8618   -0.1241    0.8855 Si      1  UNL1        0.0000
      6 SI         -1.5425   -4.8590    1.8513 Si      1  UNL1        0.0000
      7 SI          0.5990   -5.3237    2.7966 Si      1  UNL1        0.0000
      8 SI         -3.1095   -2.1411   -0.4313 Si      1  UNL1        0.0000
      9 SI         -1.4035   -3.8430   -0.2981 Si      1  UNL1        0.0000
     10 F           0.0959   -0.1596    4.7560 F       1  UNL1        0.0000
     11 F          -0.7643   -2.6260    4.6603 F       1  UNL1        0.0000
     12 F          -3.3232    0.8980    4.0410 F       1  UNL1        0.0000
     13 F          -4.0641   -1.5600    3.6360 F       1  UNL1        0.0000
     14 F          -4.0540    0.8996    0.4866 F       1  UNL1        0.0000
     15 F          -1.5073    0.6617    0.4734 F       1  UNL1        0.0000
     16 F          -3.3198   -1.7331   -1.9858 F       1  UNL1        0.0000
     17 F          -4.5099   -2.8337   -0.0022 F       1  UNL1        0.0000
     18 F          -1.6384   -4.9703   -1.4383 F       1  UNL1        0.0000
     19 F           0.0855   -3.2705   -0.5720 F       1  UNL1        0.0000
     20 F          -2.4634   -6.1910    1.8019 F       1  UNL1        0.0000
     21 F          -2.3437   -3.8079    2.7899 F       1  UNL1        0.0000
     22 F           0.4542   -6.0186    4.2553 F       1  UNL1        0.0000
     23 F           1.4268   -6.3567    1.8596 F       1  UNL1        0.0000
     24 F           3.0498   -3.1459    2.1024 F       1  UNL1        0.0000
     25 F           2.0277   -2.7360    4.4447 F       1  UNL1        0.0000
@<TRIPOS>BOND
     1     1     3    1
     2     1     2    1
     3     2    24    1
     4     2     7    1
     5     2    25    1
     6     3    10    1
     7     3    11    1
     8     3     4    1
     9     4    12    1
    10     4     5    1
    11     4    13    1
    12     5    15    1
    13     5    14    1
    14     5     8    1
    15     6    20    1
    16     6     7    1
    17     6     9    1
    18     6    21    1
    19     7    22    1
    20     7    23    1
    21     8     9    1
    22     8    16    1
    23     8    17    1
    24     9    19    1
    25     9    18    1
@<TRIPOS>MOLECULE
S_SiF2_8_cyclic
 25 25 0 0 0
SMALL
GASTEIGER
****
Schrodinger Suite 2023-1.
@<TRIPOS>ATOM
      1 S           0.4312   -1.6083    2.0833 S.3     1  UNL1        0.0000
      2 SI         -0.6041   -1.4986    3.9569 Si      1  UNL1        0.0000
      3 SI         -1.2293   -1.0347    0.8672 Si      1  UNL1        0.0000
      4 SI         -1.0464   -2.0551   -1.3212 Si      1  UNL1        0.0000
      5 SI          1.1286   -3.0600   -1.3650 Si      1  UNL1        0.0000
      6 SI         -1.4061   -4.9159    2.5366 Si      1  UNL1        0.0000
      7 SI         -1.7770   -3.5575    4.4635 Si      1  UNL1        0.0000
      8 SI          1.2678   -5.2094   -0.2588 Si      1  UNL1        0.0000
      9 SI          0.9034   -5.3249    2.1241 Si      1  UNL1        0.0000
     10 F          -1.2813    0.5778    0.8011 F       1  UNL1        0.0000
     11 F          -2.5537   -1.5444    1.6431 F       1  UNL1        0.0000
     12 F          -1.2183   -0.9618   -2.5074 F       1  UNL1        0.0000
     13 F          -2.1910   -3.1786   -1.5613 F       1  UNL1        0.0000
     14 F           1.5689   -3.2494   -2.9137 F       1  UNL1        0.0000
     15 F           2.2281   -2.0365   -0.7603 F       1  UNL1        0.0000
     16 F           2.6998   -5.8870   -0.6017 F       1  UNL1        0.0000
     17 F           0.1806   -6.1873   -0.9565 F       1  UNL1        0.0000
     18 F           1.2949   -6.7935    2.6862 F       1  UNL1        0.0000
     19 F           1.8313   -4.2934    2.9578 F       1  UNL1        0.0000
     20 F          -2.2308   -6.3071    2.6321 F       1  UNL1        0.0000
     21 F          -1.9681   -4.1641    1.2149 F       1  UNL1        0.0000
     22 F          -3.3619   -3.3112    4.7070 F       1  UNL1        0.0000
     23 F          -1.2000   -4.2821    5.7948 F       1  UNL1        0.0000
     24 F           0.5047   -1.1839    5.0892 F       1  UNL1        0.0000
     25 F          -1.5943   -0.2222    3.9196 F       1  UNL1        0.0000
@<TRIPOS>BOND
     1     1     3    1
     2     1     2    1
     3     2    24    1
     4     2     7    1
     5     2    25    1
     6     3    10    1
     7     3    11    1
     8     3     4    1
     9     4    12    1
    10     4     5    1
    11     4    13    1
    12     5    15    1
    13     5    14    1
    14     5     8    1
    15     6    20    1
    16     6     7    1
    17     6     9    1
    18     6    21    1
    19     7    22    1
    20     7    23    1
    21     8     9    1
    22     8    16    1
    23     8    17    1
    24     9    19    1
    25     9    18    1
@<TRIPOS>MOLECULE
S_SiF2_8_cyclic
 25 25 0 0 0
SMALL
GASTEIGER
****
Schrodinger Suite 2023-1.
@<TRIPOS>ATOM
      1 S           0.4316   -1.6082    2.0831 S.3     1  UNL1        0.0000
      2 SI         -1.0630   -2.9808    1.4200 Si      1  UNL1        0.0000
      3 SI         -0.9639    0.0145    2.3415 Si      1  UNL1        0.0000
      4 SI         -1.8660    0.9959    0.2890 Si      1  UNL1        0.0000
      5 SI         -4.2257    0.5676    0.0926 Si      1  UNL1        0.0000
      6 SI         -2.6880   -4.9114   -1.3376 Si      1  UNL1        0.0000
      7 SI         -0.5950   -4.7183   -0.1956 Si      1  UNL1        0.0000
      8 SI         -4.8684   -1.7151   -0.3949 Si      1  UNL1        0.0000
      9 SI         -3.4599   -2.7455   -2.0469 Si      1  UNL1        0.0000
     10 F          -0.2411    1.1400    3.2485 F       1  UNL1        0.0000
     11 F          -2.1852   -0.5622    3.2288 F       1  UNL1        0.0000
     12 F          -1.0948    0.3901   -1.0016 F       1  UNL1        0.0000
     13 F          -1.5896    2.5934    0.2433 F       1  UNL1        0.0000
     14 F          -4.9511    1.0460    1.4603 F       1  UNL1        0.0000
     15 F          -4.8362    1.5276   -1.0616 F       1  UNL1        0.0000
     16 F          -6.4183   -1.7864   -0.8611 F       1  UNL1        0.0000
     17 F          -4.7881   -2.6033    0.9587 F       1  UNL1        0.0000
     18 F          -4.2213   -2.8328   -3.4739 F       1  UNL1        0.0000
     19 F          -2.1673   -1.8043   -2.2902 F       1  UNL1        0.0000
     20 F          -2.5538   -5.9124   -2.6050 F       1  UNL1        0.0000
     21 F          -3.7876   -5.5776   -0.3527 F       1  UNL1        0.0000
     22 F          -0.1529   -6.1163    0.4983 F       1  UNL1        0.0000
     23 F           0.5791   -4.2880   -1.2280 F       1  UNL1        0.0000
     24 F          -1.8321   -3.5683    2.7108 F       1  UNL1        0.0000
     25 F          -2.1418   -2.0281    0.6868 F       1  UNL1        0.0000
@<TRIPOS>BOND
     1     1     3    1
     2     1     2    1
     3     2    24    1
     4     2     7    1
     5     2    25    1
     6     3    10    1
     7     3    11    1
     8     3     4    1
     9     4    12    1
    10     4     5    1
    11     4    13    1
    12     5    15    1
    13     5    14    1
    14     5     8    1
    15     6    20    1
    16     6     7    1
    17     6     9    1
    18     6    21    1
    19     7    22    1
    20     7    23    1
    21     8     9    1
    22     8    16    1
    23     8    17    1
    24     9    19    1
    25     9    18    1
@<TRIPOS>MOLECULE
S_SiF2_8_cyclic
 25 25 0 0 0
SMALL
GASTEIGER
****
Schrodinger Suite 2023-1.
@<TRIPOS>ATOM
      1 S           0.4315   -1.6079    2.0830 S.3     1  UNL1        0.0000
      2 SI          1.7094   -0.9179    0.5183 Si      1  UNL1        0.0000
      3 SI          0.2106    0.3470    2.9648 Si      1  UNL1        0.0000
      4 SI         -1.1358    1.9531    1.7009 Si      1  UNL1        0.0000
      5 SI          0.2207    3.7708    0.8969 Si      1  UNL1        0.0000
      6 SI          2.2398   -0.0442   -3.0779 Si      1  UNL1        0.0000
      7 SI          1.7077   -1.9148   -1.6850 Si      1  UNL1        0.0000
      8 SI          1.7671    3.2506   -0.8917 Si      1  UNL1        0.0000
      9 SI          0.8061    1.8191   -2.5656 Si      1  UNL1        0.0000
     10 F           1.7015    0.9424    3.1498 F       1  UNL1        0.0000
     11 F          -0.3817    0.1462    4.4550 F       1  UNL1        0.0000
     12 F          -2.3493    2.5302    2.6092 F       1  UNL1        0.0000
     13 F          -1.8514    1.2139    0.4485 F       1  UNL1        0.0000
     14 F          -0.7522    4.9676    0.3992 F       1  UNL1        0.0000
     15 F           1.0411    4.3929    2.1481 F       1  UNL1        0.0000
     16 F           3.0720    2.5062   -0.2829 F       1  UNL1        0.0000
     17 F           2.3296    4.6077   -1.5751 F       1  UNL1        0.0000
     18 F          -0.5977    1.2376   -2.0111 F       1  UNL1        0.0000
     19 F           0.4418    2.6629   -3.8994 F       1  UNL1        0.0000
     20 F           3.7838    0.3867   -2.8466 F       1  UNL1        0.0000
     21 F           2.1146   -0.4469   -4.6427 F       1  UNL1        0.0000
     22 F           0.2555   -2.5210   -2.0765 F       1  UNL1        0.0000
     23 F           2.7959   -3.1085   -1.8332 F       1  UNL1        0.0000
     24 F           1.2115    0.5993    0.2753 F       1  UNL1        0.0000
     25 F           3.2076   -0.7785    1.1006 F       1  UNL1        0.0000
@<TRIPOS>BOND
     1     1     3    1
     2     1     2    1
     3     2    24    1
     4     2     7    1
     5     2    25    1
     6     3    10    1
     7     3    11    1
     8     3     4    1
     9     4    12    1
    10     4     5    1
    11     4    13    1
    12     5    15    1
    13     5    14    1
    14     5     8    1
    15     6    20    1
    16     6     7    1
    17     6     9    1
    18     6    21    1
    19     7    22    1
    20     7    23    1
    21     8     9    1
    22     8    16    1
    23     8    17    1
    24     9    19    1
    25     9    18    1
@<TRIPOS>MOLECULE
S_SiF2_8_cyclic
 25 25 0 0 0
SMALL
GASTEIGER
****
Schrodinger Suite 2023-1.
@<TRIPOS>ATOM
      1 S           0.4317   -1.6081    2.0830 S.3     1  UNL1        0.0000
      2 SI         -0.8879   -3.2581    1.6542 Si      1  UNL1        0.0000
      3 SI         -0.3191   -0.4035    0.4885 Si      1  UNL1        0.0000
      4 SI          1.0805    1.1516   -0.7244 Si      1  UNL1        0.0000
      5 SI          0.1078    1.0972   -2.9092 Si      1  UNL1        0.0000
      6 SI         -2.1549   -4.2415   -2.0105 Si      1  UNL1        0.0000
      7 SI         -0.4039   -4.5234   -0.3842 Si      1  UNL1        0.0000
      8 SI         -0.1474   -1.1753   -3.6574 Si      1  UNL1        0.0000
      9 SI         -2.2992   -2.0702   -3.0717 Si      1  UNL1        0.0000
     10 F          -1.6922    0.2927    0.9711 F       1  UNL1        0.0000
     11 F          -0.7675   -1.4914   -0.6181 F       1  UNL1        0.0000
     12 F           2.6261    0.6641   -0.7775 F       1  UNL1        0.0000
     13 F           1.0563    2.6436   -0.0883 F       1  UNL1        0.0000
     14 F          -1.3418    1.8190   -2.8794 F       1  UNL1        0.0000
     15 F           1.0109    1.9442   -3.9549 F       1  UNL1        0.0000
     16 F           0.9998   -2.0705   -2.9510 F       1  UNL1        0.0000
     17 F           0.1098   -1.3005   -5.2517 F       1  UNL1        0.0000
     18 F          -3.0229   -1.0223   -2.0689 F       1  UNL1        0.0000
     19 F          -3.2510   -2.1350   -4.3811 F       1  UNL1        0.0000
     20 F          -1.9796   -5.3641   -3.1662 F       1  UNL1        0.0000
     21 F          -3.5725   -4.5864   -1.3053 F       1  UNL1        0.0000
     22 F          -0.2077   -6.0989   -0.0525 F       1  UNL1        0.0000
     23 F           1.0077   -4.0393   -1.0165 F       1  UNL1        0.0000
     24 F          -0.8917   -4.2285    2.9466 F       1  UNL1        0.0000
     25 F          -2.3787   -2.6434    1.5490 F       1  UNL1        0.0000
@<TRIPOS>BOND
     1     1     3    1
     2     1     2    1
     3     2    24    1
     4     2     7    1
     5     2    25    1
     6     3    10    1
     7     3    11    1
     8     3     4    1
     9     4    12    1
    10     4     5    1
    11     4    13    1
    12     5    15    1
    13     5    14    1
    14     5     8    1
    15     6    20    1
    16     6     7    1
    17     6     9    1
    18     6    21    1
    19     7    22    1
    20     7    23    1
    21     8     9    1
    22     8    16    1
    23     8    17    1
    24     9    19    1
    25     9    18    1
@<TRIPOS>MOLECULE
S_SiF2_8_cyclic
 25 25 0 0 0
SMALL
GASTEIGER
****
Schrodinger Suite 2023-1.
@<TRIPOS>ATOM
      1 S           0.4316   -1.6081    2.0832 S.3     1  UNL1        0.0000
      2 SI         -1.4084   -2.0724    1.0604 Si      1  UNL1        0.0000
      3 SI         -0.5442   -1.0909    3.9101 Si      1  UNL1        0.0000
      4 SI          0.3152    0.6127    5.3959 Si      1  UNL1        0.0000
      5 SI         -1.6923    1.5061    6.3413 Si      1  UNL1        0.0000
      6 SI         -4.8972   -0.2386    1.7461 Si      1  UNL1        0.0000
      7 SI         -2.8395   -0.1676    0.5007 Si      1  UNL1        0.0000
      8 SI         -3.2609    2.0631    4.6040 Si      1  UNL1        0.0000
      9 SI         -4.7384    0.2320    4.1156 Si      1  UNL1        0.0000
     10 F          -0.8933   -2.4480    4.7097 F       1  UNL1        0.0000
     11 F          -1.9711   -0.5157    3.4179 F       1  UNL1        0.0000
     12 F           1.1283    1.7642    4.5945 F       1  UNL1        0.0000
     13 F           1.3042    0.0117    6.5325 F       1  UNL1        0.0000
     14 F          -2.3583    0.4167    7.3376 F       1  UNL1        0.0000
     15 F          -1.3629    2.8062    7.2511 F       1  UNL1        0.0000
     16 F          -2.4248    2.4291    3.2686 F       1  UNL1        0.0000
     17 F          -4.1037    3.3943    4.9795 F       1  UNL1        0.0000
     18 F          -4.1886   -1.0790    4.8945 F       1  UNL1        0.0000
     19 F          -6.2050    0.5172    4.7423 F       1  UNL1        0.0000
     20 F          -5.9428    0.8091    1.0863 F       1  UNL1        0.0000
     21 F          -5.5762   -1.6946    1.5353 F       1  UNL1        0.0000
     22 F          -3.1581   -0.1330   -1.0893 F       1  UNL1        0.0000
     23 F          -2.0634    1.2207    0.8129 F       1  UNL1        0.0000
     24 F          -1.0307   -2.9175   -0.2644 F       1  UNL1        0.0000
     25 F          -2.2291   -3.0820    2.0190 F       1  UNL1        0.0000
@<TRIPOS>BOND
     1     1     3    1
     2     1     2    1
     3     2    24    1
     4     2     7    1
     5     2    25    1
     6     3    10    1
     7     3    11    1
     8     3     4    1
     9     4    12    1
    10     4     5    1
    11     4    13    1
    12     5    15    1
    13     5    14    1
    14     5     8    1
    15     6    20    1
    16     6     7    1
    17     6     9    1
    18     6    21    1
    19     7    22    1
    20     7    23    1
    21     8     9    1
    22     8    16    1
    23     8    17    1
    24     9    19    1
    25     9    18    1
@<TRIPOS>MOLECULE
S_SiF2_8_cyclic
 25 25 0 0 0
SMALL
GASTEIGER
****
Schrodinger Suite 2023-1.
@<TRIPOS>ATOM
      1 S           0.4317   -1.6080    2.0831 S.3     1  UNL1        0.0000
      2 SI          0.9628   -0.5660    0.2703 Si      1  UNL1        0.0000
      3 SI         -0.4190   -3.2933    1.1139 Si      1  UNL1        0.0000
      4 SI         -0.9829   -5.2624    2.4088 Si      1  UNL1        0.0000
      5 SI          1.0844   -6.4430    2.6834 Si      1  UNL1        0.0000
      6 SI          3.8411   -2.9757   -1.1927 Si      1  UNL1        0.0000
      7 SI          1.8482   -1.7312   -1.7083 Si      1  UNL1        0.0000
      8 SI          2.4819   -6.2469    0.7337 Si      1  UNL1        0.0000
      9 SI          3.7722   -4.2269    0.8618 Si      1  UNL1        0.0000
     10 F           0.7996   -3.7351    0.1552 F       1  UNL1        0.0000
     11 F          -1.5957   -2.7874    0.1325 F       1  UNL1        0.0000
     12 F          -2.0506   -6.1868    1.6113 F       1  UNL1        0.0000
     13 F          -1.6602   -4.8940    3.8356 F       1  UNL1        0.0000
     14 F           1.8836   -5.8740    3.9719 F       1  UNL1        0.0000
     15 F           0.7913   -8.0049    3.0023 F       1  UNL1        0.0000
     16 F           1.5510   -6.2304   -0.5924 F       1  UNL1        0.0000
     17 F           3.4514   -7.5353    0.5783 F       1  UNL1        0.0000
     18 F           3.1276   -3.2987    2.0176 F       1  UNL1        0.0000
     19 F           5.2730   -4.5640    1.3698 F       1  UNL1        0.0000
     20 F           4.1765   -3.9917   -2.4099 F       1  UNL1        0.0000
     21 F           5.0939   -1.9493   -1.1423 F       1  UNL1        0.0000
     22 F           2.1630   -0.6702   -2.8940 F       1  UNL1        0.0000
     23 F           0.7276   -2.7241   -2.3347 F       1  UNL1        0.0000
     24 F          -0.3596    0.2640   -0.1464 F       1  UNL1        0.0000
     25 F           2.0454    0.5447    0.7237 F       1  UNL1        0.0000
@<TRIPOS>BOND
     1     1     3    1
     2     1     2    1
     3     2    24    1
     4     2     7    1
     5     2    25    1
     6     3    10    1
     7     3    11    1
     8     3     4    1
     9     4    12    1
    10     4     5    1
    11     4    13    1
    12     5    15    1
    13     5    14    1
    14     5     8    1
    15     6    20    1
    16     6     7    1
    17     6     9    1
    18     6    21    1
    19     7    22    1
    20     7    23    1
    21     8     9    1
    22     8    16    1
    23     8    17    1
    24     9    19    1
    25     9    18    1
@<TRIPOS>MOLECULE
S_SiF2_8_cyclic
 25 25 0 0 0
SMALL
GASTEIGER
****
Schrodinger Suite 2023-1.
@<TRIPOS>ATOM
      1 S           0.4314   -1.6083    2.0831 S.3     1  UNL1        0.0000
      2 SI          0.6274   -2.1964    4.1495 Si      1  UNL1        0.0000
      3 SI         -0.0245    0.4244    2.4868 Si      1  UNL1        0.0000
      4 SI         -0.0503    2.0298    0.6716 Si      1  UNL1        0.0000
      5 SI          2.2491    2.5976    0.3067 Si      1  UNL1        0.0000
      6 SI          3.9472   -0.1768    5.2129 Si      1  UNL1        0.0000
      7 SI          1.6961   -0.7549    5.8333 Si      1  UNL1        0.0000
      8 SI          3.4862    2.6468    2.3706 Si      1  UNL1        0.0000
      9 SI          4.2560    0.4373    2.9066 Si      1  UNL1        0.0000
     10 F           1.2282    0.8341    3.4153 F       1  UNL1        0.0000
     11 F          -1.3239    0.4845    3.4416 F       1  UNL1        0.0000
     12 F          -0.8913    3.3527    1.0878 F       1  UNL1        0.0000
     13 F          -0.7450    1.4392   -0.6696 F       1  UNL1        0.0000
     14 F           2.9334    1.5296   -0.7002 F       1  UNL1        0.0000
     15 F           2.3529    4.0334   -0.4381 F       1  UNL1        0.0000
     16 F           2.5307    3.2065    3.5536 F       1  UNL1        0.0000
     17 F           4.7309    3.6797    2.2808 F       1  UNL1        0.0000
     18 F           3.4497   -0.6088    1.9747 F       1  UNL1        0.0000
     19 F           5.8112    0.2789    2.4822 F       1  UNL1        0.0000
     20 F           4.4735    1.0365    6.1496 F       1  UNL1        0.0000
     21 F           4.9169   -1.4281    5.5589 F       1  UNL1        0.0000
     22 F           1.7037   -1.4877    7.2803 F       1  UNL1        0.0000
     23 F           0.8259    0.5957    6.0632 F       1  UNL1        0.0000
     24 F          -0.8712   -2.5606    4.6320 F       1  UNL1        0.0000
     25 F           1.4239   -3.6019    4.1147 F       1  UNL1        0.0000
@<TRIPOS>BOND
     1     1     3    1
     2     1     2    1
     3     2    24    1
     4     2     7    1
     5     2    25    1
     6     3    10    1
     7     3    11    1
     8     3     4    1
     9     4    12    1
    10     4     5    1
    11     4    13    1
    12     5    15    1
    13     5    14    1
    14     5     8    1
    15     6    20    1
    16     6     7    1
    17     6     9    1
    18     6    21    1
    19     7    22    1
    20     7    23    1
    21     8     9    1
    22     8    16    1
    23     8    17    1
    24     9    19    1
    25     9    18    1
@<TRIPOS>MOLECULE
S_SiF2_8_cyclic
 25 25 0 0 0
SMALL
GASTEIGER
****
Schrodinger Suite 2023-1.
@<TRIPOS>ATOM
      1 S           0.4318   -1.6081    2.0833 S.3     1  UNL1        0.0000
      2 SI          2.3639   -1.2209    1.2055 Si      1  UNL1        0.0000
      3 SI         -0.0250    0.4244    2.4873 Si      1  UNL1        0.0000
      4 SI         -2.2671    1.0340    3.1756 Si      1  UNL1        0.0000
      5 SI         -3.5391    1.1287    1.1469 Si      1  UNL1        0.0000
      6 SI          1.3012    0.6973   -2.1747 Si      1  UNL1        0.0000
      7 SI          2.7763    0.7014   -0.2746 Si      1  UNL1        0.0000
      8 SI         -2.2232    1.9702   -0.6841 Si      1  UNL1        0.0000
      9 SI         -0.9976    0.1708   -1.6949 Si      1  UNL1        0.0000
     10 F           0.1755    1.0733    1.0251 F       1  UNL1        0.0000
     11 F           1.1426    1.0442    3.4127 F       1  UNL1        0.0000
     12 F          -2.2696    2.4837    3.9029 F       1  UNL1        0.0000
     13 F          -2.8993   -0.0194    4.2344 F       1  UNL1        0.0000
     14 F          -4.0970   -0.3443    0.7703 F       1  UNL1        0.0000
     15 F          -4.8520    2.0550    1.3599 F       1  UNL1        0.0000
     16 F          -1.2012    3.1006   -0.1334 F       1  UNL1        0.0000
     17 F          -3.1560    2.7130   -1.7806 F       1  UNL1        0.0000
     18 F          -1.0452   -1.0908   -0.6855 F       1  UNL1        0.0000
     19 F          -1.7563   -0.3256   -3.0373 F       1  UNL1        0.0000
     20 F           1.3619    2.1395   -2.9116 F       1  UNL1        0.0000
     21 F           1.8662   -0.3585   -3.2663 F       1  UNL1        0.0000
     22 F           4.3163    0.7009   -0.7838 F       1  UNL1        0.0000
     23 F           2.6159    2.0948    0.5420 F       1  UNL1        0.0000
     24 F           3.3937   -1.1674    2.4496 F       1  UNL1        0.0000
     25 F           2.7363   -2.5676    0.3937 F       1  UNL1        0.0000
@<TRIPOS>BOND
     1     1     3    1
     2     1     2    1
     3     2    24    1
     4     2     7    1
     5     2    25    1
     6     3    10    1
     7     3    11    1
     8     3     4    1
     9     4    12    1
    10     4     5    1
    11     4    13    1
    12     5    15    1
    13     5    14    1
    14     5     8    1
    15     6    20    1
    16     6     7    1
    17     6     9    1
    18     6    21    1
    19     7    22    1
    20     7    23    1
    21     8     9    1
    22     8    16    1
    23     8    17    1
    24     9    19    1
    25     9    18    1
@<TRIPOS>MOLECULE
S_SiF2_8_cyclic
 25 25 0 0 0
SMALL
GASTEIGER
****
Schrodinger Suite 2023-1.
@<TRIPOS>ATOM
      1 S           0.4316   -1.6081    2.0833 S.3     1  UNL1        0.0000
      2 SI          0.6735   -2.7781    0.2870 Si      1  UNL1        0.0000
      3 SI         -1.1984   -0.4555    1.3637 Si      1  UNL1        0.0000
      4 SI         -1.9488    1.4760    2.6207 Si      1  UNL1        0.0000
      5 SI         -0.4317    3.2353    2.0321 Si      1  UNL1        0.0000
      6 SI          1.9555    0.0367   -2.2948 Si      1  UNL1        0.0000
      7 SI          0.4423   -1.8030   -1.9606 Si      1  UNL1        0.0000
      8 SI          0.2538    3.0810   -0.2699 Si      1  UNL1        0.0000
      9 SI          2.1201    1.5837   -0.4587 Si      1  UNL1        0.0000
     10 F          -2.3837   -1.4557    0.9182 F       1  UNL1        0.0000
     11 F          -0.5731    0.1280   -0.0030 F       1  UNL1        0.0000
     12 F          -1.9670    1.2066    4.2199 F       1  UNL1        0.0000
     13 F          -3.4618    1.8814    2.1997 F       1  UNL1        0.0000
     14 F          -1.1200    4.6757    2.3116 F       1  UNL1        0.0000
     15 F           0.8781    3.1824    2.9832 F       1  UNL1        0.0000
     16 F           0.6285    4.5397   -0.8667 F       1  UNL1        0.0000
     17 F          -0.9863    2.5421   -1.1627 F       1  UNL1        0.0000
     18 F           3.4975    2.4311   -0.5543 F       1  UNL1        0.0000
     19 F           2.2269    0.7483    0.9210 F       1  UNL1        0.0000
     20 F           3.4286   -0.5567   -2.6167 F       1  UNL1        0.0000
     21 F           1.5294    0.8544   -3.6276 F       1  UNL1        0.0000
     22 F          -1.0835   -1.3121   -2.2154 F       1  UNL1        0.0000
     23 F           0.7032   -2.9325   -3.0950 F       1  UNL1        0.0000
     24 F           2.1484   -3.4281    0.4021 F       1  UNL1        0.0000
     25 F          -0.3566   -4.0134    0.4417 F       1  UNL1        0.0000
@<TRIPOS>BOND
     1     1     3    1
     2     1     2    1
     3     2    24    1
     4     2     7    1
     5     2    25    1
     6     3    10    1
     7     3    11    1
     8     3     4    1
     9     4    12    1
    10     4     5    1
    11     4    13    1
    12     5    15    1
    13     5    14    1
    14     5     8    1
    15     6    20    1
    16     6     7    1
    17     6     9    1
    18     6    21    1
    19     7    22    1
    20     7    23    1
    21     8     9    1
    22     8    16    1
    23     8    17    1
    24     9    19    1
    25     9    18    1
@<TRIPOS>MOLECULE
S_SiF2_8_cyclic
 25 25 0 0 0
SMALL
GASTEIGER
****
Schrodinger Suite 2023-1.
@<TRIPOS>ATOM
      1 S           0.4316   -1.6082    2.0831 S.3     1  UNL1        0.0000
      2 SI          1.0629   -2.1841    4.0410 Si      1  UNL1        0.0000
      3 SI         -0.9718   -0.1353    2.7858 Si      1  UNL1        0.0000
      4 SI         -2.9558   -1.0022    3.9192 Si      1  UNL1        0.0000
      5 SI         -2.7270   -0.6723    6.2712 Si      1  UNL1        0.0000
      6 SI         -0.0814   -5.2694    5.6954 Si      1  UNL1        0.0000
      7 SI          1.7781   -4.4602    4.4481 Si      1  UNL1        0.0000
      8 SI         -2.6801   -2.7891    7.4138 Si      1  UNL1        0.0000
      9 SI         -0.4874   -3.7775    7.5240 Si      1  UNL1        0.0000
     10 F          -1.3968    0.7642    1.5120 F       1  UNL1        0.0000
     11 F          -0.1571    0.8476    3.7753 F       1  UNL1        0.0000
     12 F          -3.0961   -2.5945    3.6445 F       1  UNL1        0.0000
     13 F          -4.3206   -0.3199    3.3694 F       1  UNL1        0.0000
     14 F          -1.3683    0.1510    6.5864 F       1  UNL1        0.0000
     15 F          -3.9389    0.2486    6.8277 F       1  UNL1        0.0000
     16 F          -3.6923   -3.8191    6.6813 F       1  UNL1        0.0000
     17 F          -3.2655   -2.6083    8.9140 F       1  UNL1        0.0000
     18 F           0.6444   -2.6188    7.4827 F       1  UNL1        0.0000
     19 F          -0.2719   -4.5464    8.9334 F       1  UNL1        0.0000
     20 F          -1.3920   -5.3010    4.7450 F       1  UNL1        0.0000
     21 F           0.1614   -6.7861    6.2118 F       1  UNL1        0.0000
     22 F           3.1422   -4.5342    5.3223 F       1  UNL1        0.0000
     23 F           2.0115   -5.3112    3.0873 F       1  UNL1        0.0000
     24 F           2.1325   -1.1027    4.5803 F       1  UNL1        0.0000
     25 F          -0.2627   -1.9941    4.9504 F       1  UNL1        0.0000
@<TRIPOS>BOND
     1     1     3    1
     2     1     2    1
     3     2    24    1
     4     2     7    1
     5     2    25    1
     6     3    10    1
     7     3    11    1
     8     3     4    1
     9     4    12    1
    10     4     5    1
    11     4    13    1
    12     5    15    1
    13     5    14    1
    14     5     8    1
    15     6    20    1
    16     6     7    1
    17     6     9    1
    18     6    21    1
    19     7    22    1
    20     7    23    1
    21     8     9    1
    22     8    16    1
    23     8    17    1
    24     9    19    1
    25     9    18    1
@<TRIPOS>MOLECULE
S_SiF2_8_cyclic
 25 25 0 0 0
SMALL
GASTEIGER
****
Schrodinger Suite 2023-1.
@<TRIPOS>ATOM
      1 S           0.4314   -1.6083    2.0831 S.3     1  UNL1        0.0000
      2 SI          1.9020   -0.2865    1.2749 Si      1  UNL1        0.0000
      3 SI         -0.7025   -0.0407    3.0263 Si      1  UNL1        0.0000
      4 SI          0.3608    1.0488    4.9380 Si      1  UNL1        0.0000
      5 SI          1.1758    3.1904    4.2726 Si      1  UNL1        0.0000
      6 SI          5.2596    0.1173    2.7326 Si      1  UNL1        0.0000
      7 SI          4.1743   -1.0628    0.9726 Si      1  UNL1        0.0000
      8 SI          3.5718    3.2754    4.4742 Si      1  UNL1        0.0000
      9 SI          4.7328    2.4450    2.5353 Si      1  UNL1        0.0000
     10 F          -2.1253   -0.6750    3.4572 F       1  UNL1        0.0000
     11 F          -1.0285    1.0507    1.8810 F       1  UNL1        0.0000
     12 F           1.6219    0.1642    5.4457 F       1  UNL1        0.0000
     13 F          -0.6456    1.1806    6.2030 F       1  UNL1        0.0000
     14 F           0.7431    3.4978    2.7424 F       1  UNL1        0.0000
     15 F           0.4874    4.3538    5.1667 F       1  UNL1        0.0000
     16 F           4.0332    2.4280    5.7745 F       1  UNL1        0.0000
     17 F           4.0373    4.7992    4.7694 F       1  UNL1        0.0000
     18 F           3.8132    2.6377    1.2153 F       1  UNL1        0.0000
     19 F           6.0784    3.3030    2.2576 F       1  UNL1        0.0000
     20 F           4.7135   -0.4238    4.1577 F       1  UNL1        0.0000
     21 F           6.8610   -0.1304    2.7181 F       1  UNL1        0.0000
     22 F           4.7846   -0.6460   -0.4712 F       1  UNL1        0.0000
     23 F           4.3293   -2.6691    1.1342 F       1  UNL1        0.0000
     24 F           1.3075    0.3966   -0.0608 F       1  UNL1        0.0000
     25 F           2.0075    0.8973    2.3739 F       1  UNL1        0.0000
@<TRIPOS>BOND
     1     1     3    1
     2     1     2    1
     3     2    24    1
     4     2     7    1
     5     2    25    1
     6     3    10    1
     7     3    11    1
     8     3     4    1
     9     4    12    1
    10     4     5    1
    11     4    13    1
    12     5    15    1
    13     5    14    1
    14     5     8    1
    15     6    20    1
    16     6     7    1
    17     6     9    1
    18     6    21    1
    19     7    22    1
    20     7    23    1
    21     8     9    1
    22     8    16    1
    23     8    17    1
    24     9    19    1
    25     9    18    1
@<TRIPOS>MOLECULE
S_SiF2_8_cyclic
 25 25 0 0 0
SMALL
GASTEIGER
****
Schrodinger Suite 2023-1.
@<TRIPOS>ATOM
      1 S           0.4317   -1.6081    2.0833 S.3     1  UNL1        0.0000
      2 SI         -0.1798   -3.2201    0.8161 Si      1  UNL1        0.0000
      3 SI         -1.5760   -1.1468    2.6614 Si      1  UNL1        0.0000
      4 SI         -2.9803   -0.0280    1.0147 Si      1  UNL1        0.0000
      5 SI         -4.8421   -1.4814    0.6809 Si      1  UNL1        0.0000
      6 SI         -3.0093   -5.6965    1.2717 Si      1  UNL1        0.0000
      7 SI         -0.7078   -5.3706    1.8224 Si      1  UNL1        0.0000
      8 SI         -4.6233   -2.9221   -1.2415 Si      1  UNL1        0.0000
      9 SI         -3.3549   -4.9717   -0.9804 Si      1  UNL1        0.0000
     10 F          -1.5457   -0.3602    4.0719 F       1  UNL1        0.0000
     11 F          -2.2128   -2.6037    2.9616 F       1  UNL1        0.0000
     12 F          -2.1963    0.1994   -0.3861 F       1  UNL1        0.0000
     13 F          -3.4636    1.4335    1.5255 F       1  UNL1        0.0000
     14 F          -5.0625   -2.3695    2.0143 F       1  UNL1        0.0000
     15 F          -6.1941   -0.5990    0.5436 F       1  UNL1        0.0000
     16 F          -3.9766   -2.0590   -2.4499 F       1  UNL1        0.0000
     17 F          -6.1085   -3.3090   -1.7607 F       1  UNL1        0.0000
     18 F          -4.0426   -6.1627   -1.8360 F       1  UNL1        0.0000
     19 F          -1.8832   -4.7860   -1.6321 F       1  UNL1        0.0000
     20 F          -3.4405   -7.2476    1.4547 F       1  UNL1        0.0000
     21 F          -3.9636   -4.8431    2.2597 F       1  UNL1        0.0000
     22 F          -0.4843   -5.3700    3.4288 F       1  UNL1        0.0000
     23 F           0.2040   -6.5649    1.2125 F       1  UNL1        0.0000
     24 F          -1.5516   -2.6834    0.1365 F       1  UNL1        0.0000
     25 F           0.8854   -3.3607   -0.3888 F       1  UNL1        0.0000
@<TRIPOS>BOND
     1     1     3    1
     2     1     2    1
     3     2    24    1
     4     2     7    1
     5     2    25    1
     6     3    10    1
     7     3    11    1
     8     3     4    1
     9     4    12    1
    10     4     5    1
    11     4    13    1
    12     5    15    1
    13     5    14    1
    14     5     8    1
    15     6    20    1
    16     6     7    1
    17     6     9    1
    18     6    21    1
    19     7    22    1
    20     7    23    1
    21     8     9    1
    22     8    16    1
    23     8    17    1
    24     9    19    1
    25     9    18    1
@<TRIPOS>MOLECULE
S_SiF2_8_cyclic
 25 25 0 0 0
SMALL
GASTEIGER
****
Schrodinger Suite 2023-1.
@<TRIPOS>ATOM
      1 S           0.4316   -1.6081    2.0831 S.3     1  UNL1        0.0000
      2 SI          2.5339   -1.8835    1.7951 Si      1  UNL1        0.0000
      3 SI         -0.0251   -3.6270    1.5418 Si      1  UNL1        0.0000
      4 SI          0.5150   -5.3644    3.1621 Si      1  UNL1        0.0000
      5 SI          2.0250   -6.8286    2.0369 Si      1  UNL1        0.0000
      6 SI          4.3563   -3.9811   -0.7792 Si      1  UNL1        0.0000
      7 SI          3.4315   -1.8012   -0.4640 Si      1  UNL1        0.0000
      8 SI          4.3488   -6.3874    2.5106 Si      1  UNL1        0.0000
      9 SI          5.4486   -4.6369    1.2441 Si      1  UNL1        0.0000
     10 F           0.8836   -3.8654    0.2243 F       1  UNL1        0.0000
     11 F          -1.5641   -3.7025    1.0573 F       1  UNL1        0.0000
     12 F          -0.8082   -6.1588    3.6605 F       1  UNL1        0.0000
     13 F           1.2212   -4.7506    4.4863 F       1  UNL1        0.0000
     14 F           1.6759   -8.3623    2.4262 F       1  UNL1        0.0000
     15 F           1.7590   -6.7364    0.4445 F       1  UNL1        0.0000
     16 F           5.1815   -7.7615    2.3023 F       1  UNL1        0.0000
     17 F           4.4897   -6.0558    4.0897 F       1  UNL1        0.0000
     18 F           5.5679   -3.3014    2.1537 F       1  UNL1        0.0000
     19 F           6.9786   -5.0613    0.9239 F       1  UNL1        0.0000
     20 F           3.1969   -5.0521   -1.1310 F       1  UNL1        0.0000
     21 F           5.3873   -4.0038   -2.0289 F       1  UNL1        0.0000
     22 F           4.5762   -0.6631   -0.6197 F       1  UNL1        0.0000
     23 F           2.2879   -1.4847   -1.5696 F       1  UNL1        0.0000
     24 F           3.3249   -0.8953    2.7971 F       1  UNL1        0.0000
     25 F           2.8096   -3.3855    2.3426 F       1  UNL1        0.0000
@<TRIPOS>BOND
     1     1     3    1
     2     1     2    1
     3     2    24    1
     4     2     7    1
     5     2    25    1
     6     3    10    1
     7     3    11    1
     8     3     4    1
     9     4    12    1
    10     4     5    1
    11     4    13    1
    12     5    15    1
    13     5    14    1
    14     5     8    1
    15     6    20    1
    16     6     7    1
    17     6     9    1
    18     6    21    1
    19     7    22    1
    20     7    23    1
    21     8     9    1
    22     8    16    1
    23     8    17    1
    24     9    19    1
    25     9    18    1
@<TRIPOS>MOLECULE
S_SiF2_8_cyclic
 25 25 0 0 0
SMALL
GASTEIGER
****
Schrodinger Suite 2023-1.
@<TRIPOS>ATOM
      1 S           0.4316   -1.6080    2.0833 S.3     1  UNL1        0.0000
      2 SI         -0.5848    0.1475    1.4025 Si      1  UNL1        0.0000
      3 SI         -1.3932   -2.6443    2.5001 Si      1  UNL1        0.0000
      4 SI         -2.6664   -3.4691    0.5937 Si      1  UNL1        0.0000
      5 SI         -4.8008   -2.4162    0.7570 Si      1  UNL1        0.0000
      6 SI         -3.8093    1.6975    2.6466 Si      1  UNL1        0.0000
      7 SI         -1.4543    1.7147    3.0470 Si      1  UNL1        0.0000
      8 SI         -5.0212   -0.4388   -0.6070 Si      1  UNL1        0.0000
      9 SI         -4.1717    1.6500    0.2837 Si      1  UNL1        0.0000
     10 F          -2.2840   -1.5246    3.2558 F       1  UNL1        0.0000
     11 F          -1.0988   -3.8047    3.5845 F       1  UNL1        0.0000
     12 F          -2.8080   -5.0846    0.6146 F       1  UNL1        0.0000
     13 F          -1.9612   -3.0772   -0.8127 F       1  UNL1        0.0000
     14 F          -5.9560   -3.4797    0.3573 F       1  UNL1        0.0000
     15 F          -5.0915   -2.0536    2.3059 F       1  UNL1        0.0000
     16 F          -6.5889   -0.2365   -0.9622 F       1  UNL1        0.0000
     17 F          -4.3093   -0.7255   -2.0333 F       1  UNL1        0.0000
     18 F          -2.7459    1.9940   -0.4048 F       1  UNL1        0.0000
     19 F          -5.1461    2.8718   -0.1421 F       1  UNL1        0.0000
     20 F          -4.4973    0.3974    3.3187 F       1  UNL1        0.0000
     21 F          -4.5260    2.9864    3.3178 F       1  UNL1        0.0000
     22 F          -0.8474    3.2047    2.8437 F       1  UNL1        0.0000
     23 F          -1.1152    1.2627    4.5673 F       1  UNL1        0.0000
     24 F           0.3356    0.8795    0.2965 F       1  UNL1        0.0000
     25 F          -1.8694   -0.4320    0.5988 F       1  UNL1        0.0000
@<TRIPOS>BOND
     1     1     3    1
     2     1     2    1
     3     2    24    1
     4     2     7    1
     5     2    25    1
     6     3    10    1
     7     3    11    1
     8     3     4    1
     9     4    12    1
    10     4     5    1
    11     4    13    1
    12     5    15    1
    13     5    14    1
    14     5     8    1
    15     6    20    1
    16     6     7    1
    17     6     9    1
    18     6    21    1
    19     7    22    1
    20     7    23    1
    21     8     9    1
    22     8    16    1
    23     8    17    1
    24     9    19    1
    25     9    18    1
@<TRIPOS>MOLECULE
S_SiF2_8_cyclic
 25 25 0 0 0
SMALL
GASTEIGER
****
Schrodinger Suite 2023-1.
@<TRIPOS>ATOM
      1 S           0.4314   -1.6084    2.0831 S.3     1  UNL1        0.0000
      2 SI          1.3904   -3.0567    3.3323 Si      1  UNL1        0.0000
      3 SI          2.2676   -0.6038    1.6397 Si      1  UNL1        0.0000
      4 SI          3.7401   -1.5398   -0.0550 Si      1  UNL1        0.0000
      5 SI          5.7401   -2.0362    1.1532 Si      1  UNL1        0.0000
      6 SI          4.4891   -2.7106    5.5639 Si      1  UNL1        0.0000
      7 SI          2.1372   -2.3133    5.5289 Si      1  UNL1        0.0000
      8 SI          6.1604   -0.2478    2.6836 Si      1  UNL1        0.0000
      9 SI          5.8156   -0.7687    5.0262 Si      1  UNL1        0.0000
     10 F           3.0882   -0.6557    3.0382 F       1  UNL1        0.0000
     11 F           1.9497    0.9559    1.3708 F       1  UNL1        0.0000
     12 F           4.0369   -0.4840   -1.2496 F       1  UNL1        0.0000
     13 F           3.1219   -2.8745   -0.7382 F       1  UNL1        0.0000
     14 F           5.5853   -3.4188    1.9777 F       1  UNL1        0.0000
     15 F           6.9935   -2.2467    0.1483 F       1  UNL1        0.0000
     16 F           5.1817    0.9676    2.2475 F       1  UNL1        0.0000
     17 F           7.6595    0.3222    2.4565 F       1  UNL1        0.0000
     18 F           7.2673   -0.9329    5.7266 F       1  UNL1        0.0000
     19 F           5.1503    0.5164    5.7537 F       1  UNL1        0.0000
     20 F           4.9173   -3.2703    7.0229 F       1  UNL1        0.0000
     21 F           4.8344   -3.9154    4.5420 F       1  UNL1        0.0000
     22 F           1.3907   -3.1153    6.7248 F       1  UNL1        0.0000
     23 F           1.8378   -0.7369    5.7620 F       1  UNL1        0.0000
     24 F           0.4568   -4.3720    3.4187 F       1  UNL1        0.0000
     25 F           2.6947   -3.4750    2.4707 F       1  UNL1        0.0000
@<TRIPOS>BOND
     1     1     3    1
     2     1     2    1
     3     2    24    1
     4     2     7    1
     5     2    25    1
     6     3    10    1
     7     3    11    1
     8     3     4    1
     9     4    12    1
    10     4     5    1
    11     4    13    1
    12     5    15    1
    13     5    14    1
    14     5     8    1
    15     6    20    1
    16     6     7    1
    17     6     9    1
    18     6    21    1
    19     7    22    1
    20     7    23    1
    21     8     9    1
    22     8    16    1
    23     8    17    1
    24     9    19    1
    25     9    18    1
@<TRIPOS>MOLECULE
S_SiF2_8_cyclic
 25 25 0 0 0
SMALL
GASTEIGER
****
Schrodinger Suite 2023-1.
@<TRIPOS>ATOM
      1 S           0.4316   -1.6080    2.0831 S.3     1  UNL1        0.0000
      2 SI          0.9800   -2.2329    4.0448 Si      1  UNL1        0.0000
      3 SI         -0.8111    0.0087    2.7791 Si      1  UNL1        0.0000
      4 SI         -2.9196   -0.5812    3.8709 Si      1  UNL1        0.0000
      5 SI         -2.6240   -0.5719    6.2443 Si      1  UNL1        0.0000
      6 SI          0.1819   -5.3570    5.9365 Si      1  UNL1        0.0000
      7 SI          1.8231   -4.4678    4.4505 Si      1  UNL1        0.0000
      8 SI         -2.6406   -2.8162    7.1102 Si      1  UNL1        0.0000
      9 SI         -0.4332   -3.6762    7.5335 Si      1  UNL1        0.0000
     10 F          -1.0971    0.9529    1.4988 F       1  UNL1        0.0000
     11 F           0.0883    0.8983    3.7830 F       1  UNL1        0.0000
     12 F          -3.4032   -2.0569    3.4038 F       1  UNL1        0.0000
     13 F          -4.1110    0.4351    3.4483 F       1  UNL1        0.0000
     14 F          -1.2204    0.1450    6.6173 F       1  UNL1        0.0000
     15 F          -3.7770    0.3188    6.9543 F       1  UNL1        0.0000
     16 F          -3.3876   -3.7887    6.0535 F       1  UNL1        0.0000
     17 F          -3.5278   -2.8844    8.4644 F       1  UNL1        0.0000
     18 F           0.6515   -2.4776    7.4272 F       1  UNL1        0.0000
     19 F          -0.3135   -4.2489    9.0440 F       1  UNL1        0.0000
     20 F          -1.1280   -5.8037    5.0958 F       1  UNL1        0.0000
     21 F           0.7292   -6.6906    6.6772 F       1  UNL1        0.0000
     22 F           3.2871   -4.4480    5.1481 F       1  UNL1        0.0000
     23 F           1.9400   -5.3525    3.0963 F       1  UNL1        0.0000
     24 F           1.9335   -1.1089    4.7003 F       1  UNL1        0.0000
     25 F          -0.4217   -2.1387    4.8481 F       1  UNL1        0.0000
@<TRIPOS>BOND
     1     1     3    1
     2     1     2    1
     3     2    24    1
     4     2     7    1
     5     2    25    1
     6     3    10    1
     7     3    11    1
     8     3     4    1
     9     4    12    1
    10     4     5    1
    11     4    13    1
    12     5    15    1
    13     5    14    1
    14     5     8    1
    15     6    20    1
    16     6     7    1
    17     6     9    1
    18     6    21    1
    19     7    22    1
    20     7    23    1
    21     8     9    1
    22     8    16    1
    23     8    17    1
    24     9    19    1
    25     9    18    1
@<TRIPOS>MOLECULE
S_SiF2_8_cyclic
 25 25 0 0 0
SMALL
GASTEIGER
****
Schrodinger Suite 2023-1.
@<TRIPOS>ATOM
      1 S           0.4316   -1.6083    2.0830 S.3     1  UNL1        0.0000
      2 SI          1.9605   -0.3045    1.3752 Si      1  UNL1        0.0000
      3 SI         -0.8005   -0.0070    2.8318 Si      1  UNL1        0.0000
      4 SI         -0.0183    1.1851    4.8202 Si      1  UNL1        0.0000
      5 SI          1.1372    3.1740    4.1634 Si      1  UNL1        0.0000
      6 SI          5.5118    0.1779    2.4608 Si      1  UNL1        0.0000
      7 SI          4.2011   -1.1234    0.9495 Si      1  UNL1        0.0000
      8 SI          3.5058    2.9312    4.5057 Si      1  UNL1        0.0000
      9 SI          4.6994    2.4350    2.4762 Si      1  UNL1        0.0000
     10 F          -2.2606   -0.6427    3.1084 F       1  UNL1        0.0000
     11 F          -1.0058    1.0395    1.6190 F       1  UNL1        0.0000
     12 F           0.9865    0.2482    5.6818 F       1  UNL1        0.0000
     13 F          -1.2481    1.5521    5.8121 F       1  UNL1        0.0000
     14 F           0.8422    3.4863    2.6018 F       1  UNL1        0.0000
     15 F           0.5736    4.4531    4.9837 F       1  UNL1        0.0000
     16 F           3.7693    1.7409    5.5707 F       1  UNL1        0.0000
     17 F           4.1116    4.2690    5.1903 F       1  UNL1        0.0000
     18 F           3.7126    2.6101    1.2034 F       1  UNL1        0.0000
     19 F           5.9120    3.4838    2.2448 F       1  UNL1        0.0000
     20 F           5.4011   -0.4434    3.9521 F       1  UNL1        0.0000
     21 F           7.0811    0.1283    2.0591 F       1  UNL1        0.0000
     22 F           4.6599   -0.8662   -0.5848 F       1  UNL1        0.0000
     23 F           4.3572   -2.7105    1.2444 F       1  UNL1        0.0000
     24 F           1.3877    0.5364    0.1235 F       1  UNL1        0.0000
     25 F           2.1012    0.7588    2.5869 F       1  UNL1        0.0000
@<TRIPOS>BOND
     1     1     3    1
     2     1     2    1
     3     2    24    1
     4     2     7    1
     5     2    25    1
     6     3    10    1
     7     3    11    1
     8     3     4    1
     9     4    12    1
    10     4     5    1
    11     4    13    1
    12     5    15    1
    13     5    14    1
    14     5     8    1
    15     6    20    1
    16     6     7    1
    17     6     9    1
    18     6    21    1
    19     7    22    1
    20     7    23    1
    21     8     9    1
    22     8    16    1
    23     8    17    1
    24     9    19    1
    25     9    18    1
@<TRIPOS>MOLECULE
S_SiF2_8_cyclic
 25 25 0 0 0
SMALL
GASTEIGER
****
Schrodinger Suite 2023-1.
@<TRIPOS>ATOM
      1 S           0.4315   -1.6080    2.0831 S.3     1  UNL1        0.0000
      2 SI          2.4279   -2.1298    1.5119 Si      1  UNL1        0.0000
      3 SI         -0.3772   -3.5822    1.8339 Si      1  UNL1        0.0000
      4 SI          0.5159   -5.4495    3.1395 Si      1  UNL1        0.0000
      5 SI          2.0960   -6.4468    1.6566 Si      1  UNL1        0.0000
      6 SI          4.8011   -4.1381   -0.8081 Si      1  UNL1        0.0000
      7 SI          3.0684   -2.4665   -0.8151 Si      1  UNL1        0.0000
      8 SI          4.3391   -6.4127    2.4748 Si      1  UNL1        0.0000
      9 SI          5.5765   -4.6292    1.4166 Si      1  UNL1        0.0000
     10 F          -0.1387   -3.8950    0.2684 F       1  UNL1        0.0000
     11 F          -1.9783   -3.4729    2.0222 F       1  UNL1        0.0000
     12 F          -0.6322   -6.5125    3.5664 F       1  UNL1        0.0000
     13 F           1.2417   -4.9538    4.5017 F       1  UNL1        0.0000
     14 F           1.6410   -7.9368    1.2137 F       1  UNL1        0.0000
     15 F           2.1128   -5.5556    0.3035 F       1  UNL1        0.0000
     16 F           5.0551   -7.8353    2.1773 F       1  UNL1        0.0000
     17 F           4.3380   -6.2361    4.0847 F       1  UNL1        0.0000
     18 F           5.4567   -3.2725    2.2920 F       1  UNL1        0.0000
     19 F           7.1565   -4.9855    1.3907 F       1  UNL1        0.0000
     20 F           4.2805   -5.5120   -1.4910 F       1  UNL1        0.0000
     21 F           6.0424   -3.6458   -1.7257 F       1  UNL1        0.0000
     22 F           3.6042   -1.0901   -1.4845 F       1  UNL1        0.0000
     23 F           1.8138   -2.9553   -1.7179 F       1  UNL1        0.0000
     24 F           3.4239   -1.0762    2.2208 F       1  UNL1        0.0000
     25 F           2.6970   -3.5334    2.2687 F       1  UNL1        0.0000
@<TRIPOS>BOND
     1     1     3    1
     2     1     2    1
     3     2    24    1
     4     2     7    1
     5     2    25    1
     6     3    10    1
     7     3    11    1
     8     3     4    1
     9     4    12    1
    10     4     5    1
    11     4    13    1
    12     5    15    1
    13     5    14    1
    14     5     8    1
    15     6    20    1
    16     6     7    1
    17     6     9    1
    18     6    21    1
    19     7    22    1
    20     7    23    1
    21     8     9    1
    22     8    16    1
    23     8    17    1
    24     9    19    1
    25     9    18    1
@<TRIPOS>MOLECULE
S_SiF2_8_cyclic
 25 25 0 0 0
SMALL
GASTEIGER
****
Schrodinger Suite 2023-1.
@<TRIPOS>ATOM
      1 S           0.4316   -1.6081    2.0833 S.3     1  UNL1        0.0000
      2 SI         -0.8551    0.0396    1.6206 Si      1  UNL1        0.0000
      3 SI         -1.1531   -3.0087    2.4577 Si      1  UNL1        0.0000
      4 SI         -2.7645   -3.5408    0.6945 Si      1  UNL1        0.0000
      5 SI         -4.5991   -2.0942    1.1763 Si      1  UNL1        0.0000
      6 SI         -4.0964    2.0346    2.3703 Si      1  UNL1        0.0000
      7 SI         -2.0211    1.3032    3.3474 Si      1  UNL1        0.0000
      8 SI         -5.0768   -0.5318   -0.5651 Si      1  UNL1        0.0000
      9 SI         -4.1710    1.6347   -0.0016 Si      1  UNL1        0.0000
     10 F          -1.9526   -2.3543    3.6979 F       1  UNL1        0.0000
     11 F          -0.4757   -4.3581    3.0331 F       1  UNL1        0.0000
     12 F          -3.2259   -5.0952    0.7249 F       1  UNL1        0.0000
     13 F          -2.1741   -3.2442   -0.7859 F       1  UNL1        0.0000
     14 F          -5.9172   -2.9275    1.6136 F       1  UNL1        0.0000
     15 F          -4.1801   -1.1995    2.4606 F       1  UNL1        0.0000
     16 F          -6.6786   -0.4224   -0.7821 F       1  UNL1        0.0000
     17 F          -4.4666   -1.0635   -1.9680 F       1  UNL1        0.0000
     18 F          -2.6627    1.7738   -0.5736 F       1  UNL1        0.0000
     19 F          -5.0188    2.8025   -0.7378 F       1  UNL1        0.0000
     20 F          -5.3557    1.2861    3.0623 F       1  UNL1        0.0000
     21 F          -4.3177    3.6118    2.6681 F       1  UNL1        0.0000
     22 F          -1.1433    2.5734    3.8431 F       1  UNL1        0.0000
     23 F          -2.3025    0.4007    4.6643 F       1  UNL1        0.0000
     24 F          -0.0335    1.0373    0.6540 F       1  UNL1        0.0000
     25 F          -1.9975   -0.6089    0.6774 F       1  UNL1        0.0000
@<TRIPOS>BOND
     1     1     3    1
     2     1     2    1
     3     2    24    1
     4     2     7    1
     5     2    25    1
     6     3    10    1
     7     3    11    1
     8     3     4    1
     9     4    12    1
    10     4     5    1
    11     4    13    1
    12     5    15    1
    13     5    14    1
    14     5     8    1
    15     6    20    1
    16     6     7    1
    17     6     9    1
    18     6    21    1
    19     7    22    1
    20     7    23    1
    21     8     9    1
    22     8    16    1
    23     8    17    1
    24     9    19    1
    25     9    18    1
@<TRIPOS>MOLECULE
S_SiF2_8_cyclic
 25 25 0 0 0
SMALL
GASTEIGER
****
Schrodinger Suite 2023-1.
@<TRIPOS>ATOM
      1 S           0.4317   -1.6081    2.0831 S.3     1  UNL1        0.0000
      2 SI          0.6642   -0.9692    4.1134 Si      1  UNL1        0.0000
      3 SI          0.4982   -3.7102    2.5195 Si      1  UNL1        0.0000
      4 SI         -1.1621   -4.7078    4.0152 Si      1  UNL1        0.0000
      5 SI         -0.0481   -4.7399    6.1244 Si      1  UNL1        0.0000
      6 SI          2.3554   -1.4454    7.5718 Si      1  UNL1        0.0000
      7 SI          2.8195   -1.0093    5.2500 Si      1  UNL1        0.0000
      8 SI         -1.1306   -3.4344    7.8054 Si      1  UNL1        0.0000
      9 SI          0.0034   -1.3181    8.0646 Si      1  UNL1        0.0000
     10 F           1.9604   -3.9160    3.1717 F       1  UNL1        0.0000
     11 F           0.5321   -4.4934    1.1066 F       1  UNL1        0.0000
     12 F          -1.5871   -6.2050    3.5591 F       1  UNL1        0.0000
     13 F          -2.5207   -3.8273    4.0979 F       1  UNL1        0.0000
     14 F           0.2328   -6.2535    6.6278 F       1  UNL1        0.0000
     15 F           1.4048   -4.0552    5.9100 F       1  UNL1        0.0000
     16 F          -1.1296   -4.2384    9.2120 F       1  UNL1        0.0000
     17 F          -2.6863   -3.2099    7.4150 F       1  UNL1        0.0000
     18 F          -0.6488   -0.2122    7.0781 F       1  UNL1        0.0000
     19 F          -0.2225   -0.7439    9.5624 F       1  UNL1        0.0000
     20 F           2.8973   -2.9100    8.0036 F       1  UNL1        0.0000
     21 F           3.1683   -0.3957    8.5006 F       1  UNL1        0.0000
     22 F           3.6035    0.3998    5.0781 F       1  UNL1        0.0000
     23 F           3.7961   -2.1523    4.6435 F       1  UNL1        0.0000
     24 F          -0.0092    0.4921    4.2399 F       1  UNL1        0.0000
     25 F          -0.3117   -1.9526    4.9474 F       1  UNL1        0.0000
@<TRIPOS>BOND
     1     1     3    1
     2     1     2    1
     3     2    24    1
     4     2     7    1
     5     2    25    1
     6     3    10    1
     7     3    11    1
     8     3     4    1
     9     4    12    1
    10     4     5    1
    11     4    13    1
    12     5    15    1
    13     5    14    1
    14     5     8    1
    15     6    20    1
    16     6     7    1
    17     6     9    1
    18     6    21    1
    19     7    22    1
    20     7    23    1
    21     8     9    1
    22     8    16    1
    23     8    17    1
    24     9    19    1
    25     9    18    1
@<TRIPOS>MOLECULE
S_SiF2_8_cyclic
 25 25 0 0 0
SMALL
GASTEIGER
****
Schrodinger Suite 2023-1.
@<TRIPOS>ATOM
      1 S           0.4320   -1.6081    2.0832 S.3     1  UNL1        0.0000
      2 SI         -0.5050   -3.2396    1.0613 Si      1  UNL1        0.0000
      3 SI         -1.3961   -0.7312    2.7921 Si      1  UNL1        0.0000
      4 SI         -3.1003    0.0113    1.2006 Si      1  UNL1        0.0000
      5 SI         -4.6040   -1.8382    1.1081 Si      1  UNL1        0.0000
      6 SI         -3.2747   -5.9543    0.9780 Si      1  UNL1        0.0000
      7 SI         -1.3760   -5.1849    2.2427 Si      1  UNL1        0.0000
      8 SI         -4.7793   -2.8301   -1.0569 Si      1  UNL1        0.0000
      9 SI         -3.4536   -4.8466   -1.1509 Si      1  UNL1        0.0000
     10 F          -0.9952    0.4701    3.7956 F       1  UNL1        0.0000
     11 F          -2.0353   -1.8860    3.7213 F       1  UNL1        0.0000
     12 F          -2.4787    0.3187   -0.2648 F       1  UNL1        0.0000
     13 F          -3.8621    1.3565    1.6909 F       1  UNL1        0.0000
     14 F          -4.0011   -2.9951    2.0692 F       1  UNL1        0.0000
     15 F          -6.0571   -1.4567    1.7132 F       1  UNL1        0.0000
     16 F          -4.3027   -1.7747   -2.1892 F       1  UNL1        0.0000
     17 F          -6.3293   -3.1715   -1.3819 F       1  UNL1        0.0000
     18 F          -4.0597   -5.8614   -2.2585 F       1  UNL1        0.0000
     19 F          -1.9543   -4.5043   -1.6571 F       1  UNL1        0.0000
     20 F          -3.1739   -7.5562    0.7564 F       1  UNL1        0.0000
     21 F          -4.6501   -5.7204    1.8018 F       1  UNL1        0.0000
     22 F          -1.8167   -4.8181    3.7590 F       1  UNL1        0.0000
     23 F          -0.2569   -6.3525    2.3619 F       1  UNL1        0.0000
     24 F          -1.7643   -2.5588    0.3090 F       1  UNL1        0.0000
     25 F           0.4885   -3.7017   -0.1237 F       1  UNL1        0.0000
@<TRIPOS>BOND
     1     1     3    1
     2     1     2    1
     3     2    24    1
     4     2     7    1
     5     2    25    1
     6     3    10    1
     7     3    11    1
     8     3     4    1
     9     4    12    1
    10     4     5    1
    11     4    13    1
    12     5    15    1
    13     5    14    1
    14     5     8    1
    15     6    20    1
    16     6     7    1
    17     6     9    1
    18     6    21    1
    19     7    22    1
    20     7    23    1
    21     8     9    1
    22     8    16    1
    23     8    17    1
    24     9    19    1
    25     9    18    1
@<TRIPOS>MOLECULE
S_SiF2_8_cyclic
 25 25 0 0 0
SMALL
GASTEIGER
****
Schrodinger Suite 2023-1.
@<TRIPOS>ATOM
      1 S           0.4316   -1.6081    2.0832 S.3     1  UNL1        0.0000
      2 SI         -1.3761   -1.6916    0.9204 Si      1  UNL1        0.0000
      3 SI         -0.5170   -0.9858    3.9101 Si      1  UNL1        0.0000
      4 SI          0.0203    1.1816    4.8531 Si      1  UNL1        0.0000
      5 SI         -1.9253    1.7520    6.1182 Si      1  UNL1        0.0000
      6 SI         -4.8725   -0.0635    1.6955 Si      1  UNL1        0.0000
      7 SI         -2.6570    0.3748    0.9444 Si      1  UNL1        0.0000
      8 SI         -3.8586    2.2522    4.7654 Si      1  UNL1        0.0000
      9 SI         -5.0493    0.2843    4.0725 Si      1  UNL1        0.0000
     10 F          -0.3217   -2.1574    5.0031 F       1  UNL1        0.0000
     11 F          -2.1077   -0.9374    3.6212 F       1  UNL1        0.0000
     12 F           0.2956    2.2918    3.7039 F       1  UNL1        0.0000
     13 F           1.3428    1.1301    5.7907 F       1  UNL1        0.0000
     14 F          -2.2821    0.5169    7.1030 F       1  UNL1        0.0000
     15 F          -1.5977    3.0041    7.0934 F       1  UNL1        0.0000
     16 F          -3.4314    3.1038    3.4569 F       1  UNL1        0.0000
     17 F          -4.8607    3.2254    5.5856 F       1  UNL1        0.0000
     18 F          -4.4742   -0.9952    4.8824 F       1  UNL1        0.0000
     19 F          -6.6071    0.3960    4.5034 F       1  UNL1        0.0000
     20 F          -5.9149    0.9073    0.9232 F       1  UNL1        0.0000
     21 F          -5.2950   -1.5762    1.2992 F       1  UNL1        0.0000
     22 F          -2.6411    1.1419   -0.4836 F       1  UNL1        0.0000
     23 F          -1.9574    1.3692    2.0198 F       1  UNL1        0.0000
     24 F          -0.9863   -2.1136   -0.5901 F       1  UNL1        0.0000
     25 F          -2.2652   -2.8966    1.5266 F       1  UNL1        0.0000
@<TRIPOS>BOND
     1     1     3    1
     2     1     2    1
     3     2    24    1
     4     2     7    1
     5     2    25    1
     6     3    10    1
     7     3    11    1
     8     3     4    1
     9     4    12    1
    10     4     5    1
    11     4    13    1
    12     5    15    1
    13     5    14    1
    14     5     8    1
    15     6    20    1
    16     6     7    1
    17     6     9    1
    18     6    21    1
    19     7    22    1
    20     7    23    1
    21     8     9    1
    22     8    16    1
    23     8    17    1
    24     9    19    1
    25     9    18    1
@<TRIPOS>MOLECULE
S_SiF2_8_cyclic
 25 25 0 0 0
SMALL
GASTEIGER
****
Schrodinger Suite 2023-1.
@<TRIPOS>ATOM
      1 S           0.4317   -1.6082    2.0832 S.3     1  UNL1        0.0000
      2 SI          1.6400   -0.9671    0.4239 Si      1  UNL1        0.0000
      3 SI         -0.1273    0.3694    2.7181 Si      1  UNL1        0.0000
      4 SI         -1.1436    1.7140    0.9658 Si      1  UNL1        0.0000
      5 SI          0.0732    3.7428    0.7045 Si      1  UNL1        0.0000
      6 SI          1.9482    0.1488   -3.1834 Si      1  UNL1        0.0000
      7 SI          0.9834   -1.5687   -1.8306 Si      1  UNL1        0.0000
      8 SI          1.7487    3.5162   -1.0112 Si      1  UNL1        0.0000
      9 SI          0.9080    2.3077   -2.9094 Si      1  UNL1        0.0000
     10 F           1.2192    1.0863    3.2502 F       1  UNL1        0.0000
     11 F          -1.1159    0.2314    3.9890 F       1  UNL1        0.0000
     12 F          -2.7231    1.9816    1.2139 F       1  UNL1        0.0000
     13 F          -1.0203    0.8803   -0.4214 F       1  UNL1        0.0000
     14 F          -0.9427    4.9449    0.3194 F       1  UNL1        0.0000
     15 F           0.7453    4.1630    2.1172 F       1  UNL1        0.0000
     16 F           3.0575    2.7547   -0.4360 F       1  UNL1        0.0000
     17 F           2.2743    4.9782   -1.4709 F       1  UNL1        0.0000
     18 F          -0.6972    2.1516   -2.7724 F       1  UNL1        0.0000
     19 F           1.1267    3.1920   -4.2490 F       1  UNL1        0.0000
     20 F           3.5201    0.2755   -2.8153 F       1  UNL1        0.0000
     21 F           1.9015   -0.2900   -4.7427 F       1  UNL1        0.0000
     22 F          -0.6282   -1.5921   -2.0071 F       1  UNL1        0.0000
     23 F           1.5296   -3.0354   -2.2562 F       1  UNL1        0.0000
     24 F           1.6461    0.6502    0.4435 F       1  UNL1        0.0000
     25 F           3.1675   -1.3988    0.7169 F       1  UNL1        0.0000
@<TRIPOS>BOND
     1     1     3    1
     2     1     2    1
     3     2    24    1
     4     2     7    1
     5     2    25    1
     6     3    10    1
     7     3    11    1
     8     3     4    1
     9     4    12    1
    10     4     5    1
    11     4    13    1
    12     5    15    1
    13     5    14    1
    14     5     8    1
    15     6    20    1
    16     6     7    1
    17     6     9    1
    18     6    21    1
    19     7    22    1
    20     7    23    1
    21     8     9    1
    22     8    16    1
    23     8    17    1
    24     9    19    1
    25     9    18    1
@<TRIPOS>MOLECULE
S_SiF2_8_cyclic
 25 25 0 0 0
SMALL
GASTEIGER
****
Schrodinger Suite 2023-1.
@<TRIPOS>ATOM
      1 S           0.4316   -1.6081    2.0832 S.3     1  UNL1        0.0000
      2 SI          1.4705   -3.1197    3.2069 Si      1  UNL1        0.0000
      3 SI         -0.5099   -0.6864    3.7828 Si      1  UNL1        0.0000
      4 SI         -2.9265   -0.7215    3.9703 Si      1  UNL1        0.0000
      5 SI         -3.3194   -0.5648    6.3224 Si      1  UNL1        0.0000
      6 SI          0.7885   -4.3533    6.8794 Si      1  UNL1        0.0000
      7 SI          0.0220   -4.4581    4.6287 Si      1  UNL1        0.0000
      8 SI         -2.6861   -2.5403    7.5530 Si      1  UNL1        0.0000
      9 SI         -0.3439   -2.6008    8.0828 Si      1  UNL1        0.0000
     10 F           0.0598    0.8177    3.9196 F       1  UNL1        0.0000
     11 F           0.0264   -1.4631    5.0963 F       1  UNL1        0.0000
     12 F          -3.5609   -2.0915    3.3790 F       1  UNL1        0.0000
     13 F          -3.6201    0.5073    3.1706 F       1  UNL1        0.0000
     14 F          -2.4906    0.6999    6.9021 F       1  UNL1        0.0000
     15 F          -4.8798   -0.2234    6.5961 F       1  UNL1        0.0000
     16 F          -3.0792   -3.8751    6.7261 F       1  UNL1        0.0000
     17 F          -3.5489   -2.6300    8.9212 F       1  UNL1        0.0000
     18 F           0.3124   -1.1587    7.7460 F       1  UNL1        0.0000
     19 F          -0.1392   -2.7998    9.6776 F       1  UNL1        0.0000
     20 F           0.5293   -5.7745    7.6132 F       1  UNL1        0.0000
     21 F           2.3923   -4.1268    6.9009 F       1  UNL1        0.0000
     22 F          -0.1312   -5.9865    4.1104 F       1  UNL1        0.0000
     23 F          -1.4584   -3.7942    4.5785 F       1  UNL1        0.0000
     24 F           2.2836   -4.0523    2.1673 F       1  UNL1        0.0000
     25 F           2.5722   -2.3557    4.1084 F       1  UNL1        0.0000
@<TRIPOS>BOND
     1     1     3    1
     2     1     2    1
     3     2    24    1
     4     2     7    1
     5     2    25    1
     6     3    10    1
     7     3    11    1
     8     3     4    1
     9     4    12    1
    10     4     5    1
    11     4    13    1
    12     5    15    1
    13     5    14    1
    14     5     8    1
    15     6    20    1
    16     6     7    1
    17     6     9    1
    18     6    21    1
    19     7    22    1
    20     7    23    1
    21     8     9    1
    22     8    16    1
    23     8    17    1
    24     9    19    1
    25     9    18    1
