@<TRIPOS>MOLECULE
syn_R_TS
 134 141 0 0 0
SMALL
GASTEIGER
****
Schrodinger Suite 2022-1.
@<TRIPOS>ATOM
      1 RH         -0.1557   -0.2993   -0.2072 Rh      1  UNL1        0.0000
      2 RH         -0.3957   -1.0524   -2.5537 Rh      1  UNL1        0.0000
      3 CL          8.7549   -0.0707   -0.3452 Cl      1  UNL1        0.0000
      4 C           7.7225   -1.3696   -0.8362 C.ar    1  UNL1        0.0000
      5 C           6.4289   -1.1027   -1.3001 C.ar    1  UNL1        0.0000
      6 C           8.1524   -2.7084   -0.7608 C.ar    1  UNL1        0.0000
      7 C           5.6776    0.1747   -1.4763 C.2     1  UNL1        0.0000
      8 C           5.5937   -2.1160   -1.6788 C.ar    1  UNL1        0.0000
      9 C           7.2833   -3.7511   -1.1414 C.ar    1  UNL1        0.0000
     10 CL          9.7414   -3.0726   -0.1765 Cl      1  UNL1        0.0000
     11 N           4.4720   -0.1519   -2.0122 N.am    1  UNL1        0.0000
     12 O           6.0104    1.3085   -1.1661 O.2     1  UNL1        0.0000
     13 C           5.9889   -3.4535   -1.6025 C.ar    1  UNL1        0.0000
     14 C           4.3128   -1.4968   -2.1151 C.2     1  UNL1        0.0000
     15 CL          7.7864   -5.4041   -1.0257 Cl      1  UNL1        0.0000
     16 C           3.4757    0.8992   -2.4472 C.3     1  UNL1        0.0000
     17 CL          4.8681   -4.7015   -2.0443 Cl      1  UNL1        0.0000
     18 O           3.2523   -2.0440   -2.4448 O.2     1  UNL1        0.0000
     19 C           2.0154    0.5090   -2.0307 C.2     1  UNL1        0.0000
     20 C           3.6827    1.4237   -3.9350 C.3     1  UNL1        0.0000
     21 H           3.6570    1.7702   -1.8107 H       1  UNL1        0.0000
     22 O           1.6537    0.6182   -0.8115 O.2     1  UNL1        0.0000
     23 O           1.3701   -0.0417   -2.9598 O.3     1  UNL1        0.0000
     24 C           5.0655    2.1079   -4.0697 C.3     1  UNL1        0.0000
     25 C           3.6417    0.2959   -4.9991 C.3     1  UNL1        0.0000
     26 C           2.6409    2.5046   -4.3226 C.3     1  UNL1        0.0000
     27 H           5.8980    1.4087   -3.9854 H       1  UNL1        0.0000
     28 H           5.2178    2.8840   -3.3165 H       1  UNL1        0.0000
     29 H           5.1919    2.5939   -5.0401 H       1  UNL1        0.0000
     30 H           4.4121   -0.4582   -4.8317 H       1  UNL1        0.0000
     31 H           3.8435    0.6988   -5.9953 H       1  UNL1        0.0000
     32 H           2.6854   -0.2140   -5.0739 H       1  UNL1        0.0000
     33 H           2.6607    3.3458   -3.6274 H       1  UNL1        0.0000
     34 H           1.6197    2.1364   -4.3848 H       1  UNL1        0.0000
     35 H           2.8615    2.9291   -5.3058 H       1  UNL1        0.0000
     36 O          -0.3738   -3.3602    1.8338 O.2     1  UNL1        0.0000
     37 C           0.6268   -4.0318    2.1426 C.2     1  UNL1        0.0000
     38 N           1.5313   -4.5124    1.2448 N.am    1  UNL1        0.0000
     39 C           1.1662   -4.3671    3.4930 C.ar    1  UNL1        0.0000
     40 C           2.6435   -5.0058    1.8472 C.2     1  UNL1        0.0000
     41 C           1.3978   -4.5040   -0.2604 C.3     1  UNL1        0.0000
     42 C           0.6445   -4.1671    4.7738 C.ar    1  UNL1        0.0000
     43 C           2.3964   -4.9390    3.3143 C.ar    1  UNL1        0.0000
     44 O           3.6511   -5.3659    1.2540 O.2     1  UNL1        0.0000
     45 C           1.0330   -3.0796   -0.7739 C.2     1  UNL1        0.0000
     46 C           0.5682   -5.7132   -0.8567 C.3     1  UNL1        0.0000
     47 H           2.4083   -4.6282   -0.6562 H       1  UNL1        0.0000
     48 C           1.4154   -4.5408    5.8885 C.ar    1  UNL1        0.0000
     49 CL         -0.9143   -3.4375    4.9640 Cl      1  UNL1        0.0000
     50 C           3.1850   -5.3219    4.4051 C.ar    1  UNL1        0.0000
     51 O           1.0567   -2.0542   -0.0819 O.2     1  UNL1        0.0000
     52 O           0.5617   -2.8749   -2.0155 O.3     1  UNL1        0.0000
     53 C           0.9772   -7.0433   -0.1740 C.3     1  UNL1        0.0000
     54 C           0.8601   -5.9037   -2.3677 C.3     1  UNL1        0.0000
     55 C          -0.9585   -5.5509   -0.6627 C.3     1  UNL1        0.0000
     56 C           2.6874   -5.1170    5.7047 C.ar    1  UNL1        0.0000
     57 CL          0.8054   -4.2484    7.4829 Cl      1  UNL1        0.0000
     58 CL          4.7581   -5.9959    4.1477 Cl      1  UNL1        0.0000
     59 H           2.0521   -7.2250   -0.2451 H       1  UNL1        0.0000
     60 H           0.4906   -7.9075   -0.6325 H       1  UNL1        0.0000
     61 H           0.7102   -7.0807    0.8828 H       1  UNL1        0.0000
     62 H           1.9330   -5.9552   -2.5676 H       1  UNL1        0.0000
     63 H           0.4361   -5.1362   -3.0090 H       1  UNL1        0.0000
     64 H           0.4454   -6.8466   -2.7345 H       1  UNL1        0.0000
     65 H          -1.3666   -4.6943   -1.1887 H       1  UNL1        0.0000
     66 H          -1.2380   -5.4794    0.3893 H       1  UNL1        0.0000
     67 H          -1.4896   -6.4255   -1.0488 H       1  UNL1        0.0000
     68 CL          3.6539   -5.5448    7.0765 Cl      1  UNL1        0.0000
     69 O          -2.1262   -2.0300   -1.9930 O.2     1  UNL1        0.0000
     70 C          -2.5164   -1.9432   -0.7978 C.2     1  UNL1        0.0000
     71 O          -1.9425   -1.3109    0.1479 O.3     1  UNL1        0.0000
     72 C          -3.9305   -2.4779   -0.3558 C.3     1  UNL1        0.0000
     73 N          -4.6784   -1.4860    0.5086 N.am    1  UNL1        0.0000
     74 C          -4.8239   -3.1155   -1.5080 C.3     1  UNL1        0.0000
     75 H          -3.6670   -3.3129    0.2991 H       1  UNL1        0.0000
     76 C          -5.3517   -1.8608    1.6265 C.2     1  UNL1        0.0000
     77 C          -4.7803   -0.1534    0.2744 C.2     1  UNL1        0.0000
     78 C          -5.1993   -2.0973   -2.6165 C.3     1  UNL1        0.0000
     79 C          -4.1291   -4.3390   -2.1619 C.3     1  UNL1        0.0000
     80 C          -6.1600   -3.6594   -0.9397 C.3     1  UNL1        0.0000
     81 O          -5.3110   -2.9816    2.1137 O.2     1  UNL1        0.0000
     82 C          -6.0620   -0.6461    2.1212 C.ar    1  UNL1        0.0000
     83 O          -4.1317    0.4421   -0.5946 O.2     1  UNL1        0.0000
     84 C          -5.7102    0.3894    1.3004 C.ar    1  UNL1        0.0000
     85 H          -5.8461   -2.5633   -3.3649 H       1  UNL1        0.0000
     86 H          -4.3492   -1.7003   -3.1643 H       1  UNL1        0.0000
     87 H          -5.7688   -1.2531   -2.2251 H       1  UNL1        0.0000
     88 H          -3.8413   -5.0830   -1.4164 H       1  UNL1        0.0000
     89 H          -3.2542   -4.0976   -2.7591 H       1  UNL1        0.0000
     90 H          -4.8072   -4.8557   -2.8466 H       1  UNL1        0.0000
     91 H          -6.0032   -4.3633   -0.1197 H       1  UNL1        0.0000
     92 H          -6.7400   -4.1961   -1.6944 H       1  UNL1        0.0000
     93 H          -6.8208   -2.8730   -0.5735 H       1  UNL1        0.0000
     94 C          -6.9202   -0.4456    3.2080 C.ar    1  UNL1        0.0000
     95 C          -6.1849    1.6841    1.5172 C.ar    1  UNL1        0.0000
     96 C          -7.4207    0.8485    3.4454 C.ar    1  UNL1        0.0000
     97 CL         -7.3204   -1.7643    4.2545 Cl      1  UNL1        0.0000
     98 C          -7.0507    1.9143    2.6004 C.ar    1  UNL1        0.0000
     99 CL         -5.6549    2.9718    0.4856 Cl      1  UNL1        0.0000
    100 CL         -8.4591    1.1359    4.8011 Cl      1  UNL1        0.0000
    101 CL         -7.6193    3.5202    2.9107 Cl      1  UNL1        0.0000
    102 O          -1.2793    1.4044   -0.7588 O.3     1  UNL1        0.0000
    103 C          -1.7215    1.4797   -1.9534 C.2     1  UNL1        0.0000
    104 O          -1.4746    0.6786   -2.8948 O.2     1  UNL1        0.0000
    105 C          -2.4140    2.8682   -2.2174 C.3     1  UNL1        0.0000
    106 N          -1.6079    4.0231   -1.6585 N.am    1  UNL1        0.0000
    107 C          -2.9490    3.0992   -3.6955 C.3     1  UNL1        0.0000
    108 H          -3.3085    2.7994   -1.5919 H       1  UNL1        0.0000
    109 C          -0.2537    4.1336   -1.6816 C.2     1  UNL1        0.0000
    110 C          -2.1920    5.0734   -1.0228 C.2     1  UNL1        0.0000
    111 C          -1.8060    3.1823   -4.7400 C.3     1  UNL1        0.0000
    112 C          -3.9496    1.9885   -4.1170 C.3     1  UNL1        0.0000
    113 C          -3.7403    4.4270   -3.8009 C.3     1  UNL1        0.0000
    114 O           0.5110    3.2336   -2.0610 O.2     1  UNL1        0.0000
    115 C           0.0794    5.4399   -1.0513 C.ar    1  UNL1        0.0000
    116 O          -3.3857    5.1615   -0.7772 O.2     1  UNL1        0.0000
    117 C          -1.0956    6.0160   -0.6575 C.ar    1  UNL1        0.0000
    118 H          -1.1113    3.9950   -4.5221 H       1  UNL1        0.0000
    119 H          -2.2065    3.3954   -5.7347 H       1  UNL1        0.0000
    120 H          -1.2269    2.2685   -4.8406 H       1  UNL1        0.0000
    121 H          -4.7409    1.8592   -3.3754 H       1  UNL1        0.0000
    122 H          -3.4949    1.0187   -4.2994 H       1  UNL1        0.0000
    123 H          -4.4548    2.2471   -5.0516 H       1  UNL1        0.0000
    124 H          -3.1157    5.3094   -3.6590 H       1  UNL1        0.0000
    125 H          -4.5527    4.4808   -3.0731 H       1  UNL1        0.0000
    126 H          -4.2023    4.5546   -4.7828 H       1  UNL1        0.0000
    127 C           1.3105    6.0427   -0.7846 C.ar    1  UNL1        0.0000
    128 C          -1.1093    7.2518   -0.0002 C.ar    1  UNL1        0.0000
    129 C           1.3272    7.2859   -0.1285 C.ar    1  UNL1        0.0000
    130 CL          2.7759    5.2181   -1.2115 Cl      1  UNL1        0.0000
    131 C           0.1163    7.8937    0.2597 C.ar    1  UNL1        0.0000
    132 CL         -2.6079    7.9495    0.5122 Cl      1  UNL1        0.0000
    133 CL          2.8448    8.0405    0.2279 Cl      1  UNL1        0.0000
    134 CL          0.1355    9.4130    1.0914 Cl      1  UNL1        0.0000
@<TRIPOS>UNITY_ATOM_ATTR
1 1
charge 2
2 1
charge 2
@<TRIPOS>BOND
     1     1    71    1
     2     1     2    1
     3     1   102    1
     4     2    52    1
     5     2    23    1
     6     3     4    1
     7     4     6   ar
     8     4     5   ar
     9     5     7    1
    10     5     8   ar
    11     6    10    1
    12     6     9   ar
    13     7    11   am
    14     7    12    2
    15     8    13   ar
    16     8    14    1
    17     9    15    1
    18     9    13   ar
    19    11    14   am
    20    11    16    1
    21    13    17    1
    22    14    18    2
    23    16    21    1
    24    16    19    1
    25    16    20    1
    26    19    22    2
    27    19    23    1
    28    20    24    1
    29    20    25    1
    30    20    26    1
    31    24    28    1
    32    24    27    1
    33    24    29    1
    34    25    32    1
    35    25    30    1
    36    25    31    1
    37    26    33    1
    38    26    34    1
    39    26    35    1
    40    36    37    2
    41    37    39    1
    42    37    38   am
    43    38    40   am
    44    38    41    1
    45    39    42   ar
    46    39    43   ar
    47    40    43    1
    48    40    44    2
    49    41    47    1
    50    41    45    1
    51    41    46    1
    52    42    49    1
    53    42    48   ar
    54    43    50   ar
    55    45    51    2
    56    45    52    1
    57    46    55    1
    58    46    53    1
    59    46    54    1
    60    48    57    1
    61    48    56   ar
    62    50    56   ar
    63    50    58    1
    64    53    61    1
    65    53    59    1
    66    53    60    1
    67    54    63    1
    68    54    62    1
    69    54    64    1
    70    55    66    1
    71    55    65    1
    72    55    67    1
    73    56    68    1
    74    69    70    2
    75    70    72    1
    76    70    71    1
    77    72    73    1
    78    72    75    1
    79    72    74    1
    80    73    76   am
    81    73    77   am
    82    74    80    1
    83    74    78    1
    84    74    79    1
    85    76    82    1
    86    76    81    2
    87    77    84    1
    88    77    83    2
    89    78    87    1
    90    78    85    1
    91    78    86    1
    92    79    88    1
    93    79    89    1
    94    79    90    1
    95    80    93    1
    96    80    91    1
    97    80    92    1
    98    82    94   ar
    99    82    84   ar
   100    84    95   ar
   101    94    97    1
   102    94    96   ar
   103    95    98   ar
   104    95    99    1
   105    96   100    1
   106    96    98   ar
   107    98   101    1
   108   102   103    1
   109   103   105    1
   110   103   104    2
   111   105   108    1
   112   105   106    1
   113   105   107    1
   114   106   110   am
   115   106   109   am
   116   107   111    1
   117   107   112    1
   118   107   113    1
   119   109   114    2
   120   109   115    1
   121   110   117    1
   122   110   116    2
   123   111   118    1
   124   111   119    1
   125   111   120    1
   126   112   121    1
   127   112   122    1
   128   112   123    1
   129   113   124    1
   130   113   125    1
   131   113   126    1
   132   115   127   ar
   133   115   117   ar
   134   117   128   ar
   135   127   130    1
   136   127   129   ar
   137   128   131   ar
   138   128   132    1
   139   129   133    1
   140   129   131   ar
   141   131   134    1
