Molecule Name
     RDKit          3D

 20 19  0  0  0  0  0  0  0  0999 V2000
   -2.0155   23.6418  -29.0036 O   0  0  0  0  0  0  0  0  0  0  0  0
   -0.3339   23.4243  -29.2997 Si  0  0  0  0  0  4  0  0  0  0  0  0
    0.3580   23.4469  -27.9916 H   0  0  0  0  0  0  0  0  0  0  0  0
    0.1626   24.5352  -30.1057 H   0  0  0  0  0  0  0  0  0  0  0  0
   -0.0569   21.4468  -30.2728 Si  0  0  0  0  0  4  0  0  0  0  0  0
    0.9826   21.4513  -31.2964 H   0  0  0  0  0  0  0  0  0  0  0  0
   -1.3119   21.0748  -30.9743 H   0  0  0  0  0  0  0  0  0  0  0  0
    0.2805   19.9333  -28.6890 Si  0  0  0  0  0  4  0  0  0  0  0  0
   -0.9962   19.8195  -27.9495 H   0  0  0  0  0  0  0  0  0  0  0  0
    0.5314   18.6290  -29.2951 H   0  0  0  0  0  0  0  0  0  0  0  0
    1.8144   20.5308  -27.2239 Si  0  0  0  0  0  4  0  0  0  0  0  0
    1.8924   19.4859  -26.1999 H   0  0  0  0  0  0  0  0  0  0  0  0
    1.4170   21.7690  -26.5778 H   0  0  0  0  0  0  0  0  0  0  0  0
    3.8284   20.7842  -28.0925 Si  0  0  0  0  0  4  0  0  0  0  0  0
    4.3487   19.5666  -28.7180 H   0  0  0  0  0  0  0  0  0  0  0  0
    4.7452   21.0866  -26.9662 H   0  0  0  0  0  0  0  0  0  0  0  0
    3.9619   22.5146  -29.4824 Si  0  0  0  0  0  4  0  0  0  0  0  0
    2.7429   22.7094  -30.2565 H   0  0  0  0  0  0  0  0  0  0  0  0
    5.0604   22.2525  -30.4364 H   0  0  0  0  0  0  0  0  0  0  0  0
    4.3271   23.7524  -28.7553 H   0  0  0  0  0  0  0  0  0  0  0  0
  1  2  1  0
  2  3  1  0
  2  4  1  0
  2  5  1  0
  5  6  1  0
  5  7  1  0
  5  8  1  0
  8  9  1  0
  8 10  1  0
  8 11  1  0
 11 12  1  0
 11 13  1  0
 11 14  1  0
 14 15  1  0
 14 16  1  0
 14 17  1  0
 17 18  1  0
 17 19  1  0
 17 20  1  0
M  END
>  <_TriposChargeType>  (1) 
NO_CHARGES

$$$$
Molecule Name
     RDKit          3D

 20 19  0  0  0  0  0  0  0  0999 V2000
   -2.0155   23.6418  -29.0036 O   0  0  0  0  0  0  0  0  0  0  0  0
   -0.9257   23.4629  -30.3046 Si  0  0  0  0  0  4  0  0  0  0  0  0
   -1.5886   23.7451  -31.5998 H   0  0  0  0  0  0  0  0  0  0  0  0
    0.2200   24.3665  -30.2116 H   0  0  0  0  0  0  0  0  0  0  0  0
   -0.1749   21.3648  -30.3445 Si  0  0  0  0  0  4  0  0  0  0  0  0
    1.2866   21.3178  -30.1874 H   0  0  0  0  0  0  0  0  0  0  0  0
   -0.5682   20.6955  -31.6036 H   0  0  0  0  0  0  0  0  0  0  0  0
   -1.0412   20.2115  -28.6260 Si  0  0  0  0  0  4  0  0  0  0  0  0
   -0.5065   20.7888  -27.3806 H   0  0  0  0  0  0  0  0  0  0  0  0
   -2.4969   20.3822  -28.5888 H   0  0  0  0  0  0  0  0  0  0  0  0
   -0.4937   18.0735  -28.7602 Si  0  0  0  0  0  4  0  0  0  0  0  0
   -0.8809   17.4047  -27.5147 H   0  0  0  0  0  0  0  0  0  0  0  0
   -1.2148   17.4938  -29.9074 H   0  0  0  0  0  0  0  0  0  0  0  0
    1.7218   17.9495  -29.0777 Si  0  0  0  0  0  4  0  0  0  0  0  0
    2.1473   16.6310  -28.6105 H   0  0  0  0  0  0  0  0  0  0  0  0
    1.9815   18.0403  -30.5247 H   0  0  0  0  0  0  0  0  0  0  0  0
    2.7837   19.5756  -27.9821 Si  0  0  0  0  0  4  0  0  0  0  0  0
    3.2451   20.6080  -28.9080 H   0  0  0  0  0  0  0  0  0  0  0  0
    1.8656   20.1788  -26.9910 H   0  0  0  0  0  0  0  0  0  0  0  0
    3.9181   19.0171  -27.2436 H   0  0  0  0  0  0  0  0  0  0  0  0
  1  2  1  0
  2  3  1  0
  2  4  1  0
  2  5  1  0
  5  6  1  0
  5  7  1  0
  5  8  1  0
  8  9  1  0
  8 10  1  0
  8 11  1  0
 11 12  1  0
 11 13  1  0
 11 14  1  0
 14 15  1  0
 14 16  1  0
 14 17  1  0
 17 18  1  0
 17 19  1  0
 17 20  1  0
M  END
>  <_TriposChargeType>  (2) 
NO_CHARGES

$$$$
Molecule Name
     RDKit          3D

 20 19  0  0  0  0  0  0  0  0999 V2000
   -2.0155   23.6418  -29.0036 O   0  0  0  0  0  0  0  0  0  0  0  0
   -0.8131   23.4628  -30.2012 Si  0  0  0  0  0  4  0  0  0  0  0  0
   -1.3453   23.7877  -31.5458 H   0  0  0  0  0  0  0  0  0  0  0  0
    0.3391   24.3359  -29.9815 H   0  0  0  0  0  0  0  0  0  0  0  0
   -0.1093   21.3483  -30.2187 Si  0  0  0  0  0  4  0  0  0  0  0  0
    1.3296   21.2621  -29.9274 H   0  0  0  0  0  0  0  0  0  0  0  0
   -0.3980   20.7147  -31.5238 H   0  0  0  0  0  0  0  0  0  0  0  0
   -1.1584   20.1815  -28.6149 Si  0  0  0  0  0  4  0  0  0  0  0  0
   -0.7298   20.7200  -27.3124 H   0  0  0  0  0  0  0  0  0  0  0  0
   -2.6069   20.3872  -28.7095 H   0  0  0  0  0  0  0  0  0  0  0  0
   -0.6490   18.0340  -28.7460 Si  0  0  0  0  0  4  0  0  0  0  0  0
   -1.1661   17.3495  -27.5574 H   0  0  0  0  0  0  0  0  0  0  0  0
   -1.2726   17.4958  -29.9681 H   0  0  0  0  0  0  0  0  0  0  0  0
    1.5830   17.8621  -28.8586 Si  0  0  0  0  0  4  0  0  0  0  0  0
    1.9331   16.5243  -28.3839 H   0  0  0  0  0  0  0  0  0  0  0  0
    1.9790   17.9761  -30.2728 H   0  0  0  0  0  0  0  0  0  0  0  0
    2.5742   19.4388  -27.6323 Si  0  0  0  0  0  4  0  0  0  0  0  0
    3.1434   20.4784  -28.4876 H   0  0  0  0  0  0  0  0  0  0  0  0
    1.5811   20.0440  -26.7176 H   0  0  0  0  0  0  0  0  0  0  0  0
    3.6216   18.8377  -26.8043 H   0  0  0  0  0  0  0  0  0  0  0  0
  1  2  1  0
  2  3  1  0
  2  4  1  0
  2  5  1  0
  5  6  1  0
  5  7  1  0
  5  8  1  0
  8  9  1  0
  8 10  1  0
  8 11  1  0
 11 12  1  0
 11 13  1  0
 11 14  1  0
 14 15  1  0
 14 16  1  0
 14 17  1  0
 17 18  1  0
 17 19  1  0
 17 20  1  0
M  END
>  <_TriposChargeType>  (3) 
NO_CHARGES

$$$$
Molecule Name
     RDKit          3D

 20 19  0  0  0  0  0  0  0  0999 V2000
   -2.0155   23.6418  -29.0036 O   0  0  0  0  0  0  0  0  0  0  0  0
   -1.6707   22.6741  -27.6313 Si  0  0  0  0  0  4  0  0  0  0  0  0
   -0.6768   23.3047  -26.7630 H   0  0  0  0  0  0  0  0  0  0  0  0
   -2.8985   22.4911  -26.8399 H   0  0  0  0  0  0  0  0  0  0  0  0
   -0.8553   20.7335  -28.3643 Si  0  0  0  0  0  4  0  0  0  0  0  0
   -1.4877   19.6119  -27.6332 H   0  0  0  0  0  0  0  0  0  0  0  0
    0.5906   20.6360  -28.0893 H   0  0  0  0  0  0  0  0  0  0  0  0
   -1.2778   20.4704  -30.5420 Si  0  0  0  0  0  4  0  0  0  0  0  0
   -2.4438   21.2547  -30.9629 H   0  0  0  0  0  0  0  0  0  0  0  0
   -1.5857   19.0550  -30.8525 H   0  0  0  0  0  0  0  0  0  0  0  0
    0.5142   20.9999  -31.7813 Si  0  0  0  0  0  4  0  0  0  0  0  0
    1.6061   20.0862  -31.3919 H   0  0  0  0  0  0  0  0  0  0  0  0
    0.1393   20.7490  -33.1866 H   0  0  0  0  0  0  0  0  0  0  0  0
    1.1551   23.0973  -31.4404 Si  0  0  0  0  0  4  0  0  0  0  0  0
    2.4400   23.1662  -30.7336 H   0  0  0  0  0  0  0  0  0  0  0  0
    0.1806   23.8525  -30.6558 H   0  0  0  0  0  0  0  0  0  0  0  0
    1.4482   24.1526  -33.4003 Si  0  0  0  0  0  4  0  0  0  0  0  0
    2.0326   23.2580  -34.4009 H   0  0  0  0  0  0  0  0  0  0  0  0
    2.3158   25.3097  -33.1570 H   0  0  0  0  0  0  0  0  0  0  0  0
    0.1246   24.6591  -33.8032 H   0  0  0  0  0  0  0  0  0  0  0  0
  1  2  1  0
  2  3  1  0
  2  4  1  0
  2  5  1  0
  5  6  1  0
  5  7  1  0
  5  8  1  0
  8  9  1  0
  8 10  1  0
  8 11  1  0
 11 12  1  0
 11 13  1  0
 11 14  1  0
 14 15  1  0
 14 16  1  0
 14 17  1  0
 17 18  1  0
 17 19  1  0
 17 20  1  0
M  END
>  <_TriposChargeType>  (4) 
NO_CHARGES

$$$$
Molecule Name
     RDKit          3D

 20 19  0  0  0  0  0  0  0  0999 V2000
   -2.0155   23.6418  -29.0036 O   0  0  0  0  0  0  0  0  0  0  0  0
   -2.7251   22.5396  -27.9129 Si  0  0  0  0  0  4  0  0  0  0  0  0
   -2.4129   22.9675  -26.5450 H   0  0  0  0  0  0  0  0  0  0  0  0
   -4.1741   22.5134  -28.0968 H   0  0  0  0  0  0  0  0  0  0  0  0
   -1.9471   20.4787  -28.2988 Si  0  0  0  0  0  4  0  0  0  0  0  0
   -2.3043   20.1100  -29.6772 H   0  0  0  0  0  0  0  0  0  0  0  0
   -2.6142   19.5842  -27.3269 H   0  0  0  0  0  0  0  0  0  0  0  0
    0.2585   20.4074  -28.0309 Si  0  0  0  0  0  4  0  0  0  0  0  0
    0.7900   21.6518  -27.4464 H   0  0  0  0  0  0  0  0  0  0  0  0
    0.6050   19.2860  -27.1316 H   0  0  0  0  0  0  0  0  0  0  0  0
    1.2471   19.9831  -29.9953 Si  0  0  0  0  0  4  0  0  0  0  0  0
    2.6586   19.6526  -29.8073 H   0  0  0  0  0  0  0  0  0  0  0  0
    0.5628   18.8134  -30.5743 H   0  0  0  0  0  0  0  0  0  0  0  0
    0.9621   21.7759  -31.2948 Si  0  0  0  0  0  4  0  0  0  0  0  0
   -0.4783   21.8521  -31.6094 H   0  0  0  0  0  0  0  0  0  0  0  0
    1.7808   21.6932  -32.5203 H   0  0  0  0  0  0  0  0  0  0  0  0
    1.4663   23.6207  -30.1229 Si  0  0  0  0  0  4  0  0  0  0  0  0
    0.7149   24.7901  -30.6246 H   0  0  0  0  0  0  0  0  0  0  0  0
    0.9960   23.3821  -28.7460 H   0  0  0  0  0  0  0  0  0  0  0  0
    2.9119   23.8319  -30.1558 H   0  0  0  0  0  0  0  0  0  0  0  0
  1  2  1  0
  2  3  1  0
  2  4  1  0
  2  5  1  0
  5  6  1  0
  5  7  1  0
  5  8  1  0
  8  9  1  0
  8 10  1  0
  8 11  1  0
 11 12  1  0
 11 13  1  0
 11 14  1  0
 14 15  1  0
 14 16  1  0
 14 17  1  0
 17 18  1  0
 17 19  1  0
 17 20  1  0
M  END
>  <_TriposChargeType>  (5) 
NO_CHARGES

$$$$
Molecule Name
     RDKit          3D

 20 19  0  0  0  0  0  0  0  0999 V2000
   -2.0155   23.6418  -29.0036 O   0  0  0  0  0  0  0  0  0  0  0  0
   -2.1062   23.2819  -30.6692 Si  0  0  0  0  0  4  0  0  0  0  0  0
   -3.5150   23.1779  -31.1176 H   0  0  0  0  0  0  0  0  0  0  0  0
   -1.4722   24.3014  -31.5039 H   0  0  0  0  0  0  0  0  0  0  0  0
   -1.1041   21.3279  -31.0494 Si  0  0  0  0  0  4  0  0  0  0  0  0
    0.0231   21.4786  -31.9819 H   0  0  0  0  0  0  0  0  0  0  0  0
   -2.0704   20.3427  -31.5820 H   0  0  0  0  0  0  0  0  0  0  0  0
   -0.2501   20.5234  -29.1371 Si  0  0  0  0  0  4  0  0  0  0  0  0
    0.8269   21.4319  -28.7070 H   0  0  0  0  0  0  0  0  0  0  0  0
   -1.2711   20.5385  -28.0849 H   0  0  0  0  0  0  0  0  0  0  0  0
    0.5572   18.4864  -29.4336 Si  0  0  0  0  0  4  0  0  0  0  0  0
    1.3015   18.0910  -28.2344 H   0  0  0  0  0  0  0  0  0  0  0  0
   -0.5810   17.5784  -29.6619 H   0  0  0  0  0  0  0  0  0  0  0  0
    1.9003   18.5334  -31.2276 Si  0  0  0  0  0  4  0  0  0  0  0  0
    2.8335   17.4160  -31.0922 H   0  0  0  0  0  0  0  0  0  0  0  0
    1.0714   18.3093  -32.4245 H   0  0  0  0  0  0  0  0  0  0  0  0
    2.9836   20.4771  -31.3709 Si  0  0  0  0  0  4  0  0  0  0  0  0
    2.4196   21.3070  -32.4337 H   0  0  0  0  0  0  0  0  0  0  0  0
    2.8782   21.1926  -30.0802 H   0  0  0  0  0  0  0  0  0  0  0  0
    4.4058   20.2348  -31.6214 H   0  0  0  0  0  0  0  0  0  0  0  0
  1  2  1  0
  2  3  1  0
  2  4  1  0
  2  5  1  0
  5  6  1  0
  5  7  1  0
  5  8  1  0
  8  9  1  0
  8 10  1  0
  8 11  1  0
 11 12  1  0
 11 13  1  0
 11 14  1  0
 14 15  1  0
 14 16  1  0
 14 17  1  0
 17 18  1  0
 17 19  1  0
 17 20  1  0
M  END
>  <_TriposChargeType>  (6) 
NO_CHARGES

$$$$
Molecule Name
     RDKit          3D

 20 19  0  0  0  0  0  0  0  0999 V2000
   -2.0155   23.6418  -29.0036 O   0  0  0  0  0  0  0  0  0  0  0  0
   -3.4425   22.7235  -28.7028 Si  0  0  0  0  0  4  0  0  0  0  0  0
   -4.5175   23.2337  -29.5692 H   0  0  0  0  0  0  0  0  0  0  0  0
   -3.7915   22.8406  -27.2724 H   0  0  0  0  0  0  0  0  0  0  0  0
   -3.1195   20.5864  -29.2551 Si  0  0  0  0  0  4  0  0  0  0  0  0
   -4.3683   19.9262  -29.6554 H   0  0  0  0  0  0  0  0  0  0  0  0
   -2.5845   19.8717  -28.0643 H   0  0  0  0  0  0  0  0  0  0  0  0
   -1.5684   20.4471  -30.8833 Si  0  0  0  0  0  4  0  0  0  0  0  0
   -1.9822   19.4456  -31.8641 H   0  0  0  0  0  0  0  0  0  0  0  0
   -1.4698   21.7860  -31.5078 H   0  0  0  0  0  0  0  0  0  0  0  0
    0.4192   19.9487  -29.9739 Si  0  0  0  0  0  4  0  0  0  0  0  0
    1.4884   20.6826  -30.6437 H   0  0  0  0  0  0  0  0  0  0  0  0
    0.6421   18.5097  -30.2392 H   0  0  0  0  0  0  0  0  0  0  0  0
    0.3057   20.3579  -27.8054 Si  0  0  0  0  0  4  0  0  0  0  0  0
   -0.7871   21.3297  -27.5378 H   0  0  0  0  0  0  0  0  0  0  0  0
   -0.0073   19.1006  -27.0877 H   0  0  0  0  0  0  0  0  0  0  0  0
    2.1607   21.2370  -26.9777 Si  0  0  0  0  0  4  0  0  0  0  0  0
    3.3705   20.7750  -27.6501 H   0  0  0  0  0  0  0  0  0  0  0  0
    2.1296   22.7158  -26.9806 H   0  0  0  0  0  0  0  0  0  0  0  0
    2.2563   20.8390  -25.5542 H   0  0  0  0  0  0  0  0  0  0  0  0
  1  2  1  0
  2  3  1  0
  2  4  1  0
  2  5  1  0
  5  6  1  0
  5  7  1  0
  5  8  1  0
  8  9  1  0
  8 10  1  0
  8 11  1  0
 11 12  1  0
 11 13  1  0
 11 14  1  0
 14 15  1  0
 14 16  1  0
 14 17  1  0
 17 18  1  0
 17 19  1  0
 17 20  1  0
M  END
>  <_TriposChargeType>  (7) 
NO_CHARGES

$$$$
Molecule Name
     RDKit          3D

 20 19  0  0  0  0  0  0  0  0999 V2000
   -2.0155   23.6418  -29.0036 O   0  0  0  0  0  0  0  0  0  0  0  0
   -3.2028   22.5030  -28.5825 Si  0  0  0  0  0  4  0  0  0  0  0  0
   -3.6007   22.6751  -27.1764 H   0  0  0  0  0  0  0  0  0  0  0  0
   -4.4141   22.7121  -29.4012 H   0  0  0  0  0  0  0  0  0  0  0  0
   -2.4320   20.4481  -28.9477 Si  0  0  0  0  0  4  0  0  0  0  0  0
   -2.4419   20.1849  -30.3882 H   0  0  0  0  0  0  0  0  0  0  0  0
   -3.2622   19.4746  -28.2318 H   0  0  0  0  0  0  0  0  0  0  0  0
   -0.3709   20.3049  -28.1135 Si  0  0  0  0  0  4  0  0  0  0  0  0
    0.2325   19.0311  -28.5344 H   0  0  0  0  0  0  0  0  0  0  0  0
   -0.4419   20.3679  -26.6500 H   0  0  0  0  0  0  0  0  0  0  0  0
    0.9218   21.9417  -28.9277 Si  0  0  0  0  0  4  0  0  0  0  0  0
    2.1777   21.9884  -28.1730 H   0  0  0  0  0  0  0  0  0  0  0  0
    0.2830   23.2514  -28.7831 H   0  0  0  0  0  0  0  0  0  0  0  0
    1.4063   21.5094  -31.0667 Si  0  0  0  0  0  4  0  0  0  0  0  0
    2.7230   22.0761  -31.3655 H   0  0  0  0  0  0  0  0  0  0  0  0
    1.4757   20.0470  -31.2848 H   0  0  0  0  0  0  0  0  0  0  0  0
   -0.0939   22.4458  -32.4179 Si  0  0  0  0  0  4  0  0  0  0  0  0
   -1.0121   23.3114  -31.6740 H   0  0  0  0  0  0  0  0  0  0  0  0
    0.5476   23.2512  -33.4605 H   0  0  0  0  0  0  0  0  0  0  0  0
   -0.8683   21.3940  -33.1111 H   0  0  0  0  0  0  0  0  0  0  0  0
  1  2  1  0
  2  3  1  0
  2  4  1  0
  2  5  1  0
  5  6  1  0
  5  7  1  0
  5  8  1  0
  8  9  1  0
  8 10  1  0
  8 11  1  0
 11 12  1  0
 11 13  1  0
 11 14  1  0
 14 15  1  0
 14 16  1  0
 14 17  1  0
 17 18  1  0
 17 19  1  0
 17 20  1  0
M  END
>  <_TriposChargeType>  (8) 
NO_CHARGES

$$$$
Molecule Name
     RDKit          3D

 20 19  0  0  0  0  0  0  0  0999 V2000
   -2.0155   23.6418  -29.0036 O   0  0  0  0  0  0  0  0  0  0  0  0
   -0.4635   23.6289  -29.7144 Si  0  0  0  0  0  4  0  0  0  0  0  0
    0.4132   24.4837  -28.8848 H   0  0  0  0  0  0  0  0  0  0  0  0
   -0.5457   24.1690  -31.0812 H   0  0  0  0  0  0  0  0  0  0  0  0
    0.3200   21.5404  -29.8417 Si  0  0  0  0  0  4  0  0  0  0  0  0
    0.6460   21.1862  -31.2345 H   0  0  0  0  0  0  0  0  0  0  0  0
   -0.7217   20.6185  -29.3841 H   0  0  0  0  0  0  0  0  0  0  0  0
    2.1640   21.2953  -28.5915 Si  0  0  0  0  0  4  0  0  0  0  0  0
    1.8500   20.4624  -27.4083 H   0  0  0  0  0  0  0  0  0  0  0  0
    2.6861   22.6080  -28.1772 H   0  0  0  0  0  0  0  0  0  0  0  0
    3.7408   20.2282  -29.7868 Si  0  0  0  0  0  4  0  0  0  0  0  0
    4.2851   21.1704  -30.7529 H   0  0  0  0  0  0  0  0  0  0  0  0
    4.8031   19.7551  -28.8783 H   0  0  0  0  0  0  0  0  0  0  0  0
    2.7603   18.5221  -30.8454 Si  0  0  0  0  0  4  0  0  0  0  0  0
    3.6628   17.3772  -30.9994 H   0  0  0  0  0  0  0  0  0  0  0  0
    2.3432   18.9752  -32.1698 H   0  0  0  0  0  0  0  0  0  0  0  0
    0.9421   17.9406  -29.6666 Si  0  0  0  0  0  4  0  0  0  0  0  0
   -0.2773   18.2308  -30.4528 H   0  0  0  0  0  0  0  0  0  0  0  0
    1.0235   16.5242  -29.3086 H   0  0  0  0  0  0  0  0  0  0  0  0
    0.8391   18.7254  -28.4141 H   0  0  0  0  0  0  0  0  0  0  0  0
  1  2  1  0
  2  3  1  0
  2  4  1  0
  2  5  1  0
  5  6  1  0
  5  7  1  0
  5  8  1  0
  8  9  1  0
  8 10  1  0
  8 11  1  0
 11 12  1  0
 11 13  1  0
 11 14  1  0
 14 15  1  0
 14 16  1  0
 14 17  1  0
 17 18  1  0
 17 19  1  0
 17 20  1  0
M  END
>  <_TriposChargeType>  (9) 
NO_CHARGES

$$$$
Molecule Name
     RDKit          3D

 20 19  0  0  0  0  0  0  0  0999 V2000
   -2.0155   23.6418  -29.0036 O   0  0  0  0  0  0  0  0  0  0  0  0
   -3.4579   22.7325  -28.7529 Si  0  0  0  0  0  4  0  0  0  0  0  0
   -4.5022   23.2571  -29.6479 H   0  0  0  0  0  0  0  0  0  0  0  0
   -3.8494   22.8424  -27.3329 H   0  0  0  0  0  0  0  0  0  0  0  0
   -3.1345   20.5969  -29.3103 Si  0  0  0  0  0  4  0  0  0  0  0  0
   -4.3754   19.9493  -29.7531 H   0  0  0  0  0  0  0  0  0  0  0  0
   -2.6414   19.8698  -28.1090 H   0  0  0  0  0  0  0  0  0  0  0  0
   -1.5355   20.4568  -30.8916 Si  0  0  0  0  0  4  0  0  0  0  0  0
   -1.9269   19.4654  -31.8917 H   0  0  0  0  0  0  0  0  0  0  0  0
   -1.4079   21.7992  -31.5033 H   0  0  0  0  0  0  0  0  0  0  0  0
    0.4196   19.9366  -29.9259 Si  0  0  0  0  0  4  0  0  0  0  0  0
    1.5142   20.6669  -30.5576 H   0  0  0  0  0  0  0  0  0  0  0  0
    0.6395   18.4979  -30.1945 H   0  0  0  0  0  0  0  0  0  0  0  0
    0.2432   20.3318  -27.7590 Si  0  0  0  0  0  4  0  0  0  0  0  0
   -0.8498   21.3101  -27.5177 H   0  0  0  0  0  0  0  0  0  0  0  0
   -0.1010   19.0720  -27.0601 H   0  0  0  0  0  0  0  0  0  0  0  0
    2.0788   21.1907  -26.8690 Si  0  0  0  0  0  4  0  0  0  0  0  0
    3.3050   20.7239  -27.5076 H   0  0  0  0  0  0  0  0  0  0  0  0
    2.0590   22.6696  -26.8623 H   0  0  0  0  0  0  0  0  0  0  0  0
    2.1280   20.7820  -25.4462 H   0  0  0  0  0  0  0  0  0  0  0  0
  1  2  1  0
  2  3  1  0
  2  4  1  0
  2  5  1  0
  5  6  1  0
  5  7  1  0
  5  8  1  0
  8  9  1  0
  8 10  1  0
  8 11  1  0
 11 12  1  0
 11 13  1  0
 11 14  1  0
 14 15  1  0
 14 16  1  0
 14 17  1  0
 17 18  1  0
 17 19  1  0
 17 20  1  0
M  END
>  <_TriposChargeType>  (10) 
NO_CHARGES

$$$$
Molecule Name
     RDKit          3D

 20 19  0  0  0  0  0  0  0  0999 V2000
   -2.0155   23.6418  -29.0036 O   0  0  0  0  0  0  0  0  0  0  0  0
   -0.3490   23.5675  -29.3660 Si  0  0  0  0  0  4  0  0  0  0  0  0
    0.3682   24.3313  -28.3221 H   0  0  0  0  0  0  0  0  0  0  0  0
   -0.1071   24.1708  -30.6867 H   0  0  0  0  0  0  0  0  0  0  0  0
    0.3405   21.4435  -29.4390 Si  0  0  0  0  0  4  0  0  0  0  0  0
    0.9424   21.1318  -30.7475 H   0  0  0  0  0  0  0  0  0  0  0  0
   -0.8192   20.5663  -29.2665 H   0  0  0  0  0  0  0  0  0  0  0  0
    1.8561   21.0342  -27.8393 Si  0  0  0  0  0  4  0  0  0  0  0  0
    1.2532   20.1706  -26.7987 H   0  0  0  0  0  0  0  0  0  0  0  0
    2.3396   22.2940  -27.2507 H   0  0  0  0  0  0  0  0  0  0  0  0
    3.6001   19.9284  -28.7276 Si  0  0  0  0  0  4  0  0  0  0  0  0
    4.3859   20.8778  -29.5012 H   0  0  0  0  0  0  0  0  0  0  0  0
    4.4163   19.3534  -27.6409 H   0  0  0  0  0  0  0  0  0  0  0  0
    2.7897   18.3319  -30.0644 Si  0  0  0  0  0  4  0  0  0  0  0  0
    3.6471   17.1429  -30.0856 H   0  0  0  0  0  0  0  0  0  0  0  0
    2.6917   18.8665  -31.4201 H   0  0  0  0  0  0  0  0  0  0  0  0
    0.7334   17.8088  -29.3355 Si  0  0  0  0  0  4  0  0  0  0  0  0
   -0.2714   18.2054  -30.3467 H   0  0  0  0  0  0  0  0  0  0  0  0
    0.6661   16.3758  -29.0478 H   0  0  0  0  0  0  0  0  0  0  0  0
    0.4002   18.5428  -28.0923 H   0  0  0  0  0  0  0  0  0  0  0  0
  1  2  1  0
  2  3  1  0
  2  4  1  0
  2  5  1  0
  5  6  1  0
  5  7  1  0
  5  8  1  0
  8  9  1  0
  8 10  1  0
  8 11  1  0
 11 12  1  0
 11 13  1  0
 11 14  1  0
 14 15  1  0
 14 16  1  0
 14 17  1  0
 17 18  1  0
 17 19  1  0
 17 20  1  0
M  END
>  <_TriposChargeType>  (11) 
NO_CHARGES

$$$$
Molecule Name
     RDKit          3D

 20 19  0  0  0  0  0  0  0  0999 V2000
   -2.0155   23.6418  -29.0036 O   0  0  0  0  0  0  0  0  0  0  0  0
   -3.2054   22.5038  -28.5880 Si  0  0  0  0  0  4  0  0  0  0  0  0
   -3.6085   22.6750  -27.1832 H   0  0  0  0  0  0  0  0  0  0  0  0
   -4.4135   22.7147  -29.4110 H   0  0  0  0  0  0  0  0  0  0  0  0
   -2.4352   20.4485  -28.9520 Si  0  0  0  0  0  4  0  0  0  0  0  0
   -2.4400   20.1865  -30.3928 H   0  0  0  0  0  0  0  0  0  0  0  0
   -3.2691   19.4751  -28.2402 H   0  0  0  0  0  0  0  0  0  0  0  0
   -0.3774   20.3026  -28.1102 Si  0  0  0  0  0  4  0  0  0  0  0  0
    0.2264   19.0286  -28.5299 H   0  0  0  0  0  0  0  0  0  0  0  0
   -0.4538   20.3643  -26.6469 H   0  0  0  0  0  0  0  0  0  0  0  0
    0.9199   21.9389  -28.9182 Si  0  0  0  0  0  4  0  0  0  0  0  0
    2.1729   21.9837  -28.1587 H   0  0  0  0  0  0  0  0  0  0  0  0
    0.2817   23.2490  -28.7748 H   0  0  0  0  0  0  0  0  0  0  0  0
    1.4120   21.5080  -31.0556 Si  0  0  0  0  0  4  0  0  0  0  0  0
    2.7304   22.0736  -31.3490 H   0  0  0  0  0  0  0  0  0  0  0  0
    1.4809   20.0456  -31.2747 H   0  0  0  0  0  0  0  0  0  0  0  0
   -0.0822   22.4469  -32.4117 Si  0  0  0  0  0  4  0  0  0  0  0  0
   -1.0024   23.3128  -31.6705 H   0  0  0  0  0  0  0  0  0  0  0  0
    0.5639   23.2526  -33.4512 H   0  0  0  0  0  0  0  0  0  0  0  0
   -0.8550   21.3964  -33.1087 H   0  0  0  0  0  0  0  0  0  0  0  0
  1  2  1  0
  2  3  1  0
  2  4  1  0
  2  5  1  0
  5  6  1  0
  5  7  1  0
  5  8  1  0
  8  9  1  0
  8 10  1  0
  8 11  1  0
 11 12  1  0
 11 13  1  0
 11 14  1  0
 14 15  1  0
 14 16  1  0
 14 17  1  0
 17 18  1  0
 17 19  1  0
 17 20  1  0
M  END
>  <_TriposChargeType>  (12) 
NO_CHARGES

$$$$
Molecule Name
     RDKit          3D

 20 19  0  0  0  0  0  0  0  0999 V2000
   -2.0155   23.6418  -29.0036 O   0  0  0  0  0  0  0  0  0  0  0  0
   -0.4608   23.6281  -29.7086 Si  0  0  0  0  0  4  0  0  0  0  0  0
    0.4136   24.4813  -28.8750 H   0  0  0  0  0  0  0  0  0  0  0  0
   -0.5374   24.1694  -31.0752 H   0  0  0  0  0  0  0  0  0  0  0  0
    0.3211   21.5389  -29.8347 Si  0  0  0  0  0  4  0  0  0  0  0  0
    0.6520   21.1856  -31.2266 H   0  0  0  0  0  0  0  0  0  0  0  0
   -0.7231   20.6176  -29.3819 H   0  0  0  0  0  0  0  0  0  0  0  0
    2.1602   21.2909  -28.5778 Si  0  0  0  0  0  4  0  0  0  0  0  0
    1.8409   20.4574  -27.3966 H   0  0  0  0  0  0  0  0  0  0  0  0
    2.6819   22.6028  -28.1604 H   0  0  0  0  0  0  0  0  0  0  0  0
    3.7405   20.2234  -29.7682 Si  0  0  0  0  0  4  0  0  0  0  0  0
    4.2893   21.1659  -30.7314 H   0  0  0  0  0  0  0  0  0  0  0  0
    4.7989   19.7485  -28.8561 H   0  0  0  0  0  0  0  0  0  0  0  0
    2.7623   18.5192  -30.8318 Si  0  0  0  0  0  4  0  0  0  0  0  0
    3.6643   17.3735  -30.9835 H   0  0  0  0  0  0  0  0  0  0  0  0
    2.3506   18.9738  -32.1575 H   0  0  0  0  0  0  0  0  0  0  0  0
    0.9392   17.9384  -29.6605 Si  0  0  0  0  0  4  0  0  0  0  0  0
   -0.2770   18.2304  -30.4510 H   0  0  0  0  0  0  0  0  0  0  0  0
    1.0179   16.5216  -29.3034 H   0  0  0  0  0  0  0  0  0  0  0  0
    0.8322   18.7222  -28.4077 H   0  0  0  0  0  0  0  0  0  0  0  0
  1  2  1  0
  2  3  1  0
  2  4  1  0
  2  5  1  0
  5  6  1  0
  5  7  1  0
  5  8  1  0
  8  9  1  0
  8 10  1  0
  8 11  1  0
 11 12  1  0
 11 13  1  0
 11 14  1  0
 14 15  1  0
 14 16  1  0
 14 17  1  0
 17 18  1  0
 17 19  1  0
 17 20  1  0
M  END
>  <_TriposChargeType>  (13) 
NO_CHARGES

$$$$
Molecule Name
     RDKit          3D

 20 19  0  0  0  0  0  0  0  0999 V2000
   -2.0155   23.6418  -29.0036 O   0  0  0  0  0  0  0  0  0  0  0  0
   -0.3507   23.4441  -29.3937 Si  0  0  0  0  0  4  0  0  0  0  0  0
    0.4151   23.4946  -28.1283 H   0  0  0  0  0  0  0  0  0  0  0  0
    0.0818   24.5508  -30.2414 H   0  0  0  0  0  0  0  0  0  0  0  0
   -0.1007   21.4575  -30.3556 Si  0  0  0  0  0  4  0  0  0  0  0  0
    0.8778   21.4627  -31.4375 H   0  0  0  0  0  0  0  0  0  0  0  0
   -1.3884   21.0582  -30.9783 H   0  0  0  0  0  0  0  0  0  0  0  0
    0.3501   19.9709  -28.7745 Si  0  0  0  0  0  4  0  0  0  0  0  0
   -0.8799   19.8492  -27.9609 H   0  0  0  0  0  0  0  0  0  0  0  0
    0.5851   18.6621  -29.3771 H   0  0  0  0  0  0  0  0  0  0  0  0
    1.9569   20.6103  -27.4085 Si  0  0  0  0  0  4  0  0  0  0  0  0
    2.1094   19.5809  -26.3772 H   0  0  0  0  0  0  0  0  0  0  0  0
    1.5788   21.8515  -26.7565 H   0  0  0  0  0  0  0  0  0  0  0  0
    3.9133   20.8803  -28.3954 Si  0  0  0  0  0  4  0  0  0  0  0  0
    4.4149   19.6617  -29.0342 H   0  0  0  0  0  0  0  0  0  0  0  0
    4.8890   21.2112  -27.3280 H   0  0  0  0  0  0  0  0  0  0  0  0
    3.9405   22.5931  -29.8129 Si  0  0  0  0  0  4  0  0  0  0  0  0
    2.6761   22.7598  -30.5177 H   0  0  0  0  0  0  0  0  0  0  0  0
    4.9859   22.3335  -30.8254 H   0  0  0  0  0  0  0  0  0  0  0  0
    4.3284   23.8458  -29.1243 H   0  0  0  0  0  0  0  0  0  0  0  0
  1  2  1  0
  2  3  1  0
  2  4  1  0
  2  5  1  0
  5  6  1  0
  5  7  1  0
  5  8  1  0
  8  9  1  0
  8 10  1  0
  8 11  1  0
 11 12  1  0
 11 13  1  0
 11 14  1  0
 14 15  1  0
 14 16  1  0
 14 17  1  0
 17 18  1  0
 17 19  1  0
 17 20  1  0
M  END
>  <_TriposChargeType>  (14) 
NO_CHARGES

$$$$
Molecule Name
     RDKit          3D

 20 19  0  0  0  0  0  0  0  0999 V2000
   -2.0155   23.6418  -29.0036 O   0  0  0  0  0  0  0  0  0  0  0  0
   -3.2829   22.5803  -28.5853 Si  0  0  0  0  0  4  0  0  0  0  0  0
   -3.6722   22.8404  -27.1952 H   0  0  0  0  0  0  0  0  0  0  0  0
   -4.4308   22.7987  -29.4621 H   0  0  0  0  0  0  0  0  0  0  0  0
   -2.6170   20.4608  -28.8417 Si  0  0  0  0  0  4  0  0  0  0  0  0
   -2.2552   20.2670  -30.2542 H   0  0  0  0  0  0  0  0  0  0  0  0
   -3.7678   19.6067  -28.4730 H   0  0  0  0  0  0  0  0  0  0  0  0
   -0.8741   20.0201  -27.5341 Si  0  0  0  0  0  4  0  0  0  0  0  0
   -0.5990   21.1129  -26.5840 H   0  0  0  0  0  0  0  0  0  0  0  0
   -1.1427   18.7884  -26.7614 H   0  0  0  0  0  0  0  0  0  0  0  0
    0.9319   19.6067  -28.7926 Si  0  0  0  0  0  4  0  0  0  0  0  0
    2.0118   19.0430  -27.9845 H   0  0  0  0  0  0  0  0  0  0  0  0
    0.5305   18.6110  -29.8023 H   0  0  0  0  0  0  0  0  0  0  0  0
    1.5209   21.5220  -29.7769 Si  0  0  0  0  0  4  0  0  0  0  0  0
    0.4566   21.8503  -30.7459 H   0  0  0  0  0  0  0  0  0  0  0  0
    2.8376   21.4112  -30.4349 H   0  0  0  0  0  0  0  0  0  0  0  0
    1.5304   23.1620  -28.2468 Si  0  0  0  0  0  4  0  0  0  0  0  0
    1.2547   24.4724  -28.8717 H   0  0  0  0  0  0  0  0  0  0  0  0
    0.4040   22.8892  -27.3354 H   0  0  0  0  0  0  0  0  0  0  0  0
    2.8035   23.1440  -27.5296 H   0  0  0  0  0  0  0  0  0  0  0  0
  1  2  1  0
  2  3  1  0
  2  4  1  0
  2  5  1  0
  5  6  1  0
  5  7  1  0
  5  8  1  0
  8  9  1  0
  8 10  1  0
  8 11  1  0
 11 12  1  0
 11 13  1  0
 11 14  1  0
 14 15  1  0
 14 16  1  0
 14 17  1  0
 17 18  1  0
 17 19  1  0
 17 20  1  0
M  END
>  <_TriposChargeType>  (15) 
NO_CHARGES

$$$$
Molecule Name
     RDKit          3D

 20 19  0  0  0  0  0  0  0  0999 V2000
   -2.0155   23.6418  -29.0036 O   0  0  0  0  0  0  0  0  0  0  0  0
   -0.3648   23.3368  -28.6404 Si  0  0  0  0  0  4  0  0  0  0  0  0
    0.3928   24.5903  -28.6292 H   0  0  0  0  0  0  0  0  0  0  0  0
   -0.1979   22.6491  -27.3606 H   0  0  0  0  0  0  0  0  0  0  0  0
    0.4614   22.0329  -30.2428 Si  0  0  0  0  0  4  0  0  0  0  0  0
    0.0135   22.4653  -31.5795 H   0  0  0  0  0  0  0  0  0  0  0  0
    0.0447   20.6548  -29.9983 H   0  0  0  0  0  0  0  0  0  0  0  0
    2.6772   22.1224  -30.1631 Si  0  0  0  0  0  4  0  0  0  0  0  0
    3.3070   21.5254  -31.3575 H   0  0  0  0  0  0  0  0  0  0  0  0
    3.0694   23.5431  -30.0903 H   0  0  0  0  0  0  0  0  0  0  0  0
    3.3716   20.9634  -28.4033 Si  0  0  0  0  0  4  0  0  0  0  0  0
    4.7746   20.6190  -28.6007 H   0  0  0  0  0  0  0  0  0  0  0  0
    3.2284   21.7401  -27.1803 H   0  0  0  0  0  0  0  0  0  0  0  0
    2.2086   19.0831  -28.2001 Si  0  0  0  0  0  4  0  0  0  0  0  0
    0.8338   19.4393  -27.8180 H   0  0  0  0  0  0  0  0  0  0  0  0
    2.8456   18.2612  -27.1616 H   0  0  0  0  0  0  0  0  0  0  0  0
    2.0950   17.9533  -30.1033 Si  0  0  0  0  0  4  0  0  0  0  0  0
    1.1003   16.8744  -29.9263 H   0  0  0  0  0  0  0  0  0  0  0  0
    3.4181   17.3750  -30.3868 H   0  0  0  0  0  0  0  0  0  0  0  0
    1.7529   18.8280  -31.2229 H   0  0  0  0  0  0  0  0  0  0  0  0
  1  2  1  0
  2  3  1  0
  2  4  1  0
  2  5  1  0
  5  6  1  0
  5  7  1  0
  5  8  1  0
  8  9  1  0
  8 10  1  0
  8 11  1  0
 11 12  1  0
 11 13  1  0
 11 14  1  0
 14 15  1  0
 14 16  1  0
 14 17  1  0
 17 18  1  0
 17 19  1  0
 17 20  1  0
M  END
>  <_TriposChargeType>  (16) 
NO_CHARGES

$$$$
Molecule Name
     RDKit          3D

 20 19  0  0  0  0  0  0  0  0999 V2000
   -2.0155   23.6418  -29.0036 O   0  0  0  0  0  0  0  0  0  0  0  0
   -3.4230   22.7137  -28.6461 Si  0  0  0  0  0  4  0  0  0  0  0  0
   -4.5319   23.2075  -29.4785 H   0  0  0  0  0  0  0  0  0  0  0  0
   -3.7230   22.8395  -27.2053 H   0  0  0  0  0  0  0  0  0  0  0  0
   -3.1003   20.5750  -29.1923 Si  0  0  0  0  0  4  0  0  0  0  0  0
   -4.3563   19.9008  -29.5437 H   0  0  0  0  0  0  0  0  0  0  0  0
   -2.5179   19.8747  -28.0153 H   0  0  0  0  0  0  0  0  0  0  0  0
   -1.6055   20.4358  -30.8725 Si  0  0  0  0  0  4  0  0  0  0  0  0
   -2.0442   19.4228  -31.8303 H   0  0  0  0  0  0  0  0  0  0  0  0
   -1.5407   21.7703  -31.5106 H   0  0  0  0  0  0  0  0  0  0  0  0
    0.4169   19.9620  -30.0290 Si  0  0  0  0  0  4  0  0  0  0  0  0
    1.4555   20.6997  -30.7414 H   0  0  0  0  0  0  0  0  0  0  0  0
    0.6432   18.5229  -30.2905 H   0  0  0  0  0  0  0  0  0  0  0  0
    0.3752   20.3880  -27.8611 Si  0  0  0  0  0  4  0  0  0  0  0  0
   -0.7163   21.3525  -27.5633 H   0  0  0  0  0  0  0  0  0  0  0  0
    0.0985   19.1340  -27.1231 H   0  0  0  0  0  0  0  0  0  0  0  0
    2.2499   21.2899  -27.1055 Si  0  0  0  0  0  4  0  0  0  0  0  0
    3.4397   20.8329  -27.8159 H   0  0  0  0  0  0  0  0  0  0  0  0
    2.2055   22.7683  -27.1190 H   0  0  0  0  0  0  0  0  0  0  0  0
    2.3984   20.9044  -25.6831 H   0  0  0  0  0  0  0  0  0  0  0  0
  1  2  1  0
  2  3  1  0
  2  4  1  0
  2  5  1  0
  5  6  1  0
  5  7  1  0
  5  8  1  0
  8  9  1  0
  8 10  1  0
  8 11  1  0
 11 12  1  0
 11 13  1  0
 11 14  1  0
 14 15  1  0
 14 16  1  0
 14 17  1  0
 17 18  1  0
 17 19  1  0
 17 20  1  0
M  END
>  <_TriposChargeType>  (17) 
NO_CHARGES

$$$$
Molecule Name
     RDKit          3D

 20 19  0  0  0  0  0  0  0  0999 V2000
   -2.0155   23.6418  -29.0036 O   0  0  0  0  0  0  0  0  0  0  0  0
   -0.3233   23.4043  -29.2107 Si  0  0  0  0  0  4  0  0  0  0  0  0
    0.2965   23.4012  -27.8667 H   0  0  0  0  0  0  0  0  0  0  0  0
    0.2312   24.5178  -29.9740 H   0  0  0  0  0  0  0  0  0  0  0  0
   -0.0202   21.4351  -30.1928 Si  0  0  0  0  0  4  0  0  0  0  0  0
    1.0735   21.4374  -31.1582 H   0  0  0  0  0  0  0  0  0  0  0  0
   -1.2400   21.0894  -30.9663 H   0  0  0  0  0  0  0  0  0  0  0  0
    0.2100   19.8978  -28.6128 Si  0  0  0  0  0  4  0  0  0  0  0  0
   -1.1065   19.7929  -27.9453 H   0  0  0  0  0  0  0  0  0  0  0  0
    0.4761   18.5976  -29.2212 H   0  0  0  0  0  0  0  0  0  0  0  0
    1.6697   20.4557  -27.0588 Si  0  0  0  0  0  4  0  0  0  0  0  0
    1.6777   19.3974  -26.0457 H   0  0  0  0  0  0  0  0  0  0  0  0
    1.2542   21.6913  -26.4193 H   0  0  0  0  0  0  0  0  0  0  0  0
    3.7312   20.6913  -27.8133 Si  0  0  0  0  0  4  0  0  0  0  0  0
    4.2685   19.4742  -28.4254 H   0  0  0  0  0  0  0  0  0  0  0  0
    4.5892   20.9670  -26.6350 H   0  0  0  0  0  0  0  0  0  0  0  0
    3.9634   22.4365  -29.1713 Si  0  0  0  0  0  4  0  0  0  0  0  0
    2.7912   22.6578  -30.0080 H   0  0  0  0  0  0  0  0  0  0  0  0
    5.1087   22.1706  -30.0675 H   0  0  0  0  0  0  0  0  0  0  0  0
    4.3050   23.6600  -28.4095 H   0  0  0  0  0  0  0  0  0  0  0  0
  1  2  1  0
  2  3  1  0
  2  4  1  0
  2  5  1  0
  5  6  1  0
  5  7  1  0
  5  8  1  0
  8  9  1  0
  8 10  1  0
  8 11  1  0
 11 12  1  0
 11 13  1  0
 11 14  1  0
 14 15  1  0
 14 16  1  0
 14 17  1  0
 17 18  1  0
 17 19  1  0
 17 20  1  0
M  END
>  <_TriposChargeType>  (18) 
NO_CHARGES

$$$$
Molecule Name
     RDKit          3D

 20 19  0  0  0  0  0  0  0  0999 V2000
   -2.0155   23.6418  -29.0036 O   0  0  0  0  0  0  0  0  0  0  0  0
   -0.3255   23.4094  -29.2330 Si  0  0  0  0  0  4  0  0  0  0  0  0
    0.3126   23.4127  -27.8976 H   0  0  0  0  0  0  0  0  0  0  0  0
    0.2147   24.5224  -30.0074 H   0  0  0  0  0  0  0  0  0  0  0  0
   -0.0290   21.4382  -30.2130 Si  0  0  0  0  0  4  0  0  0  0  0  0
    1.0515   21.4412  -31.1933 H   0  0  0  0  0  0  0  0  0  0  0  0
   -1.2580   21.0859  -30.9687 H   0  0  0  0  0  0  0  0  0  0  0  0
    0.2281   19.9066  -28.6315 Si  0  0  0  0  0  4  0  0  0  0  0  0
   -1.0788   19.7994  -27.9457 H   0  0  0  0  0  0  0  0  0  0  0  0
    0.4904   18.6055  -29.2394 H   0  0  0  0  0  0  0  0  0  0  0  0
    1.7069   20.4745  -27.0993 Si  0  0  0  0  0  4  0  0  0  0  0  0
    1.7323   19.4195  -26.0831 H   0  0  0  0  0  0  0  0  0  0  0  0
    1.2958   21.7108  -26.4581 H   0  0  0  0  0  0  0  0  0  0  0  0
    3.7571   20.7148  -27.8826 Si  0  0  0  0  0  4  0  0  0  0  0  0
    4.2902   19.4976  -28.4981 H   0  0  0  0  0  0  0  0  0  0  0  0
    4.6301   20.9971  -26.7170 H   0  0  0  0  0  0  0  0  0  0  0  0
    3.9647   22.4564  -29.2491 Si  0  0  0  0  0  4  0  0  0  0  0  0
    2.7804   22.6711  -30.0704 H   0  0  0  0  0  0  0  0  0  0  0  0
    5.0986   22.1916  -30.1600 H   0  0  0  0  0  0  0  0  0  0  0  0
    4.3124   23.6835  -28.4959 H   0  0  0  0  0  0  0  0  0  0  0  0
  1  2  1  0
  2  3  1  0
  2  4  1  0
  2  5  1  0
  5  6  1  0
  5  7  1  0
  5  8  1  0
  8  9  1  0
  8 10  1  0
  8 11  1  0
 11 12  1  0
 11 13  1  0
 11 14  1  0
 14 15  1  0
 14 16  1  0
 14 17  1  0
 17 18  1  0
 17 19  1  0
 17 20  1  0
M  END
>  <_TriposChargeType>  (19) 
NO_CHARGES

$$$$
Molecule Name
     RDKit          3D

 20 19  0  0  0  0  0  0  0  0999 V2000
   -2.0155   23.6418  -29.0036 O   0  0  0  0  0  0  0  0  0  0  0  0
   -3.2035   22.5601  -28.4322 Si  0  0  0  0  0  4  0  0  0  0  0  0
   -3.4543   22.8455  -27.0154 H   0  0  0  0  0  0  0  0  0  0  0  0
   -4.4413   22.7275  -29.1899 H   0  0  0  0  0  0  0  0  0  0  0  0
   -2.5098   20.4519  -28.7084 Si  0  0  0  0  0  4  0  0  0  0  0  0
   -2.2905   20.2315  -30.1461 H   0  0  0  0  0  0  0  0  0  0  0  0
   -3.5927   19.5790  -28.2031 H   0  0  0  0  0  0  0  0  0  0  0  0
   -0.6300   20.0879  -27.5792 Si  0  0  0  0  0  4  0  0  0  0  0  0
   -0.2884   21.2109  -26.6876 H   0  0  0  0  0  0  0  0  0  0  0  0
   -0.7836   18.8698  -26.7552 H   0  0  0  0  0  0  0  0  0  0  0  0
    1.0472   19.6879  -29.0086 Si  0  0  0  0  0  4  0  0  0  0  0  0
    2.2197   19.1718  -28.3044 H   0  0  0  0  0  0  0  0  0  0  0  0
    0.5712   18.6573  -29.9484 H   0  0  0  0  0  0  0  0  0  0  0  0
    1.4789   21.5917  -30.0916 Si  0  0  0  0  0  4  0  0  0  0  0  0
    0.3118   21.8689  -30.9521 H   0  0  0  0  0  0  0  0  0  0  0  0
    2.7233   21.4971  -30.8800 H   0  0  0  0  0  0  0  0  0  0  0  0
    1.6013   23.2696  -28.6082 Si  0  0  0  0  0  4  0  0  0  0  0  0
    1.2269   24.5566  -29.2305 H   0  0  0  0  0  0  0  0  0  0  0  0
    0.5828   22.9920  -27.5789 H   0  0  0  0  0  0  0  0  0  0  0  0
    2.9416   23.3014  -28.0267 H   0  0  0  0  0  0  0  0  0  0  0  0
  1  2  1  0
  2  3  1  0
  2  4  1  0
  2  5  1  0
  5  6  1  0
  5  7  1  0
  5  8  1  0
  8  9  1  0
  8 10  1  0
  8 11  1  0
 11 12  1  0
 11 13  1  0
 11 14  1  0
 14 15  1  0
 14 16  1  0
 14 17  1  0
 17 18  1  0
 17 19  1  0
 17 20  1  0
M  END
>  <_TriposChargeType>  (20) 
NO_CHARGES

$$$$
Molecule Name
     RDKit          3D

 20 19  0  0  0  0  0  0  0  0999 V2000
   -2.0155   23.6418  -29.0036 O   0  0  0  0  0  0  0  0  0  0  0  0
   -2.8399   22.5027  -28.0232 Si  0  0  0  0  0  4  0  0  0  0  0  0
   -2.6797   22.8005  -26.6001 H   0  0  0  0  0  0  0  0  0  0  0  0
   -4.2799   22.5468  -28.3261 H   0  0  0  0  0  0  0  0  0  0  0  0
   -1.9622   20.4966  -28.4398 Si  0  0  0  0  0  4  0  0  0  0  0  0
   -3.0424   19.4969  -28.6017 H   0  0  0  0  0  0  0  0  0  0  0  0
   -1.1467   20.0352  -27.3007 H   0  0  0  0  0  0  0  0  0  0  0  0
   -0.7617   20.5345  -30.3233 Si  0  0  0  0  0  4  0  0  0  0  0  0
   -1.2029   21.6070  -31.2216 H   0  0  0  0  0  0  0  0  0  0  0  0
   -0.9147   19.2656  -31.0722 H   0  0  0  0  0  0  0  0  0  0  0  0
    1.4277   20.7315  -29.8808 Si  0  0  0  0  0  4  0  0  0  0  0  0
    1.8247   19.5542  -29.0837 H   0  0  0  0  0  0  0  0  0  0  0  0
    2.1215   20.7017  -31.1831 H   0  0  0  0  0  0  0  0  0  0  0  0
    1.8681   22.5786  -28.7318 Si  0  0  0  0  0  4  0  0  0  0  0  0
    2.2856   22.2782  -27.3567 H   0  0  0  0  0  0  0  0  0  0  0  0
    0.7134   23.4709  -28.6558 H   0  0  0  0  0  0  0  0  0  0  0  0
    3.5636   23.7032  -29.6814 Si  0  0  0  0  0  4  0  0  0  0  0  0
    4.5797   22.7874  -30.2029 H   0  0  0  0  0  0  0  0  0  0  0  0
    4.1302   24.5954  -28.6647 H   0  0  0  0  0  0  0  0  0  0  0  0
    2.9684   24.5425  -30.7359 H   0  0  0  0  0  0  0  0  0  0  0  0
  1  2  1  0
  2  3  1  0
  2  4  1  0
  2  5  1  0
  5  6  1  0
  5  7  1  0
  5  8  1  0
  8  9  1  0
  8 10  1  0
  8 11  1  0
 11 12  1  0
 11 13  1  0
 11 14  1  0
 14 15  1  0
 14 16  1  0
 14 17  1  0
 17 18  1  0
 17 19  1  0
 17 20  1  0
M  END
>  <_TriposChargeType>  (21) 
NO_CHARGES

$$$$
Molecule Name
     RDKit          3D

 20 19  0  0  0  0  0  0  0  0999 V2000
   -2.0155   23.6418  -29.0036 O   0  0  0  0  0  0  0  0  0  0  0  0
   -0.8645   23.4635  -30.2508 Si  0  0  0  0  0  4  0  0  0  0  0  0
   -1.4584   23.7686  -31.5739 H   0  0  0  0  0  0  0  0  0  0  0  0
    0.2862   24.3512  -30.0903 H   0  0  0  0  0  0  0  0  0  0  0  0
   -0.1384   21.3565  -30.2782 Si  0  0  0  0  0  4  0  0  0  0  0  0
    1.3127   21.2889  -30.0492 H   0  0  0  0  0  0  0  0  0  0  0  0
   -0.4766   20.7065  -31.5631 H   0  0  0  0  0  0  0  0  0  0  0  0
   -1.1034   20.1952  -28.6187 Si  0  0  0  0  0  4  0  0  0  0  0  0
   -0.6245   20.7516  -27.3415 H   0  0  0  0  0  0  0  0  0  0  0  0
   -2.5570   20.3843  -28.6518 H   0  0  0  0  0  0  0  0  0  0  0  0
   -0.5762   18.0520  -28.7507 Si  0  0  0  0  0  4  0  0  0  0  0  0
   -1.0333   17.3743  -27.5340 H   0  0  0  0  0  0  0  0  0  0  0  0
   -1.2463   17.4945  -29.9391 H   0  0  0  0  0  0  0  0  0  0  0  0
    1.6506   17.9031  -28.9590 Si  0  0  0  0  0  4  0  0  0  0  0  0
    2.0361   16.5741  -28.4869 H   0  0  0  0  0  0  0  0  0  0  0  0
    1.9833   18.0067  -30.3902 H   0  0  0  0  0  0  0  0  0  0  0  0
    2.6765   19.5030  -27.7928 Si  0  0  0  0  0  4  0  0  0  0  0  0
    3.1962   20.5398  -28.6824 H   0  0  0  0  0  0  0  0  0  0  0  0
    1.7175   20.1069  -26.8416 H   0  0  0  0  0  0  0  0  0  0  0  0
    3.7657   18.9218  -27.0055 H   0  0  0  0  0  0  0  0  0  0  0  0
  1  2  1  0
  2  3  1  0
  2  4  1  0
  2  5  1  0
  5  6  1  0
  5  7  1  0
  5  8  1  0
  8  9  1  0
  8 10  1  0
  8 11  1  0
 11 12  1  0
 11 13  1  0
 11 14  1  0
 14 15  1  0
 14 16  1  0
 14 17  1  0
 17 18  1  0
 17 19  1  0
 17 20  1  0
M  END
>  <_TriposChargeType>  (22) 
NO_CHARGES

$$$$
