Molecule Name
     RDKit          3D

 20 19  0  0  0  0  0  0  0  0999 V2000
   21.8259   42.7118   40.9658 O   0  0  0  0  0  0  0  0  0  0  0  0
   22.6917   41.2912   40.5913 Si  0  0  0  0  0  4  0  0  0  0  0  0
   23.2251   41.4128   39.2302 H   0  0  0  0  0  0  0  0  0  0  0  0
   23.7943   41.1121   41.5328 H   0  0  0  0  0  0  0  0  0  0  0  0
   21.3470   39.5124   40.7628 Si  0  0  0  0  0  4  0  0  0  0  0  0
   20.8603   39.4441   42.1492 H   0  0  0  0  0  0  0  0  0  0  0  0
   22.1689   38.3259   40.4363 H   0  0  0  0  0  0  0  0  0  0  0  0
   19.6354   39.6813   39.3545 Si  0  0  0  0  0  4  0  0  0  0  0  0
   19.7938   40.8073   38.4165 H   0  0  0  0  0  0  0  0  0  0  0  0
   19.5247   38.4335   38.5690 H   0  0  0  0  0  0  0  0  0  0  0  0
   17.7249   39.8865   40.5051 Si  0  0  0  0  0  4  0  0  0  0  0  0
   16.5679   39.7170   39.6278 H   0  0  0  0  0  0  0  0  0  0  0  0
   17.7143   38.8099   41.5114 H   0  0  0  0  0  0  0  0  0  0  0  0
   17.7483   41.8847   41.5005 Si  0  0  0  0  0  4  0  0  0  0  0  0
   18.8033   41.8367   42.5322 H   0  0  0  0  0  0  0  0  0  0  0  0
   16.4336   42.2151   42.0847 H   0  0  0  0  0  0  0  0  0  0  0  0
   18.3717   43.4408   40.0103 Si  0  0  0  0  0  4  0  0  0  0  0  0
   19.0297   44.5826   40.6791 H   0  0  0  0  0  0  0  0  0  0  0  0
   19.3947   42.8128   39.1542 H   0  0  0  0  0  0  0  0  0  0  0  0
   17.2085   43.8498   39.2261 H   0  0  0  0  0  0  0  0  0  0  0  0
  1  2  1  0
  2  3  1  0
  2  4  1  0
  2  5  1  0
  5  6  1  0
  5  7  1  0
  5  8  1  0
  8  9  1  0
  8 10  1  0
  8 11  1  0
 11 12  1  0
 11 13  1  0
 11 14  1  0
 14 15  1  0
 14 16  1  0
 14 17  1  0
 17 18  1  0
 17 19  1  0
 17 20  1  0
M  END
>  <_TriposChargeType>  (1) 
NO_CHARGES

$$$$
Molecule Name
     RDKit          3D

 20 19  0  0  0  0  0  0  0  0999 V2000
   21.8259   42.7118   40.9658 O   0  0  0  0  0  0  0  0  0  0  0  0
   20.1728   42.8260   40.5480 Si  0  0  0  0  0  4  0  0  0  0  0  0
   20.0549   42.8481   39.0921 H   0  0  0  0  0  0  0  0  0  0  0  0
   19.5831   44.0635   41.0981 H   0  0  0  0  0  0  0  0  0  0  0  0
   19.1353   41.0309   41.3571 Si  0  0  0  0  0  4  0  0  0  0  0  0
   18.8388   40.0409   40.3030 H   0  0  0  0  0  0  0  0  0  0  0  0
   17.8765   41.4814   41.9722 H   0  0  0  0  0  0  0  0  0  0  0  0
   20.4327   40.0257   42.8895 Si  0  0  0  0  0  4  0  0  0  0  0  0
   19.9010   38.7025   43.1809 H   0  0  0  0  0  0  0  0  0  0  0  0
   20.5499   40.8739   44.0945 H   0  0  0  0  0  0  0  0  0  0  0  0
   22.4874   39.7587   42.0578 Si  0  0  0  0  0  4  0  0  0  0  0  0
   23.2528   38.9840   43.0492 H   0  0  0  0  0  0  0  0  0  0  0  0
   23.1848   41.0366   41.8692 H   0  0  0  0  0  0  0  0  0  0  0  0
   22.4421   38.6661   40.1238 Si  0  0  0  0  0  4  0  0  0  0  0  0
   21.1762   37.9246   40.0063 H   0  0  0  0  0  0  0  0  0  0  0  0
   23.5638   37.7258   40.1061 H   0  0  0  0  0  0  0  0  0  0  0  0
   22.6808   40.0355   38.3851 Si  0  0  0  0  0  4  0  0  0  0  0  0
   21.4996   40.8807   38.2000 H   0  0  0  0  0  0  0  0  0  0  0  0
   23.8253   40.9265   38.6101 H   0  0  0  0  0  0  0  0  0  0  0  0
   22.8784   39.1876   37.1864 H   0  0  0  0  0  0  0  0  0  0  0  0
  1  2  1  0
  2  3  1  0
  2  4  1  0
  2  5  1  0
  5  6  1  0
  5  7  1  0
  5  8  1  0
  8  9  1  0
  8 10  1  0
  8 11  1  0
 11 12  1  0
 11 13  1  0
 11 14  1  0
 14 15  1  0
 14 16  1  0
 14 17  1  0
 17 18  1  0
 17 19  1  0
 17 20  1  0
M  END
>  <_TriposChargeType>  (2) 
NO_CHARGES

$$$$
Molecule Name
     RDKit          3D

 20 19  0  0  0  0  0  0  0  0999 V2000
   21.8259   42.7118   40.9658 O   0  0  0  0  0  0  0  0  0  0  0  0
   22.6708   41.2925   40.5420 Si  0  0  0  0  0  4  0  0  0  0  0  0
   23.1673   41.4351   39.1691 H   0  0  0  0  0  0  0  0  0  0  0  0
   23.7977   41.0890   41.4493 H   0  0  0  0  0  0  0  0  0  0  0  0
   21.3187   39.5199   40.7189 Si  0  0  0  0  0  4  0  0  0  0  0  0
   20.8700   39.4297   42.1169 H   0  0  0  0  0  0  0  0  0  0  0  0
   22.1227   38.3340   40.3486 H   0  0  0  0  0  0  0  0  0  0  0  0
   19.5701   39.7256   39.3619 Si  0  0  0  0  0  4  0  0  0  0  0  0
   19.7106   40.8673   38.4402 H   0  0  0  0  0  0  0  0  0  0  0  0
   19.4288   38.4930   38.5575 H   0  0  0  0  0  0  0  0  0  0  0  0
   17.6936   39.9227   40.5685 Si  0  0  0  0  0  4  0  0  0  0  0  0
   16.5116   39.7768   39.7208 H   0  0  0  0  0  0  0  0  0  0  0  0
   17.7031   38.8282   41.5554 H   0  0  0  0  0  0  0  0  0  0  0  0
   17.7588   41.9023   41.5986 Si  0  0  0  0  0  4  0  0  0  0  0  0
   18.8415   41.8286   42.5995 H   0  0  0  0  0  0  0  0  0  0  0  0
   16.4631   42.2309   42.2248 H   0  0  0  0  0  0  0  0  0  0  0  0
   18.3520   43.4810   40.1197 Si  0  0  0  0  0  4  0  0  0  0  0  0
   19.0363   44.6061   40.7903 H   0  0  0  0  0  0  0  0  0  0  0  0
   19.3464   42.8618   39.2245 H   0  0  0  0  0  0  0  0  0  0  0  0
   17.1705   43.9118   39.3756 H   0  0  0  0  0  0  0  0  0  0  0  0
  1  2  1  0
  2  3  1  0
  2  4  1  0
  2  5  1  0
  5  6  1  0
  5  7  1  0
  5  8  1  0
  8  9  1  0
  8 10  1  0
  8 11  1  0
 11 12  1  0
 11 13  1  0
 11 14  1  0
 14 15  1  0
 14 16  1  0
 14 17  1  0
 17 18  1  0
 17 19  1  0
 17 20  1  0
M  END
>  <_TriposChargeType>  (3) 
NO_CHARGES

$$$$
Molecule Name
     RDKit          3D

 20 19  0  0  0  0  0  0  0  0999 V2000
   21.8259   42.7118   40.9658 O   0  0  0  0  0  0  0  0  0  0  0  0
   20.1352   42.9599   40.9863 Si  0  0  0  0  0  4  0  0  0  0  0  0
   19.6809   43.2238   39.6232 H   0  0  0  0  0  0  0  0  0  0  0  0
   19.7907   44.1140   41.8412 H   0  0  0  0  0  0  0  0  0  0  0  0
   19.1784   41.1006   41.7487 Si  0  0  0  0  0  4  0  0  0  0  0  0
   18.5656   40.3087   40.6641 H   0  0  0  0  0  0  0  0  0  0  0  0
   18.1387   41.4958   42.7125 H   0  0  0  0  0  0  0  0  0  0  0  0
   20.7158   39.8070   42.7509 Si  0  0  0  0  0  4  0  0  0  0  0  0
   20.1647   38.4767   42.9636 H   0  0  0  0  0  0  0  0  0  0  0  0
   21.1793   40.4419   44.0029 H   0  0  0  0  0  0  0  0  0  0  0  0
   22.4902   39.5957   41.4123 Si  0  0  0  0  0  4  0  0  0  0  0  0
   23.4034   38.6391   42.0603 H   0  0  0  0  0  0  0  0  0  0  0  0
   23.2224   40.8577   41.2508 H   0  0  0  0  0  0  0  0  0  0  0  0
   21.9060   38.8358   39.4079 Si  0  0  0  0  0  4  0  0  0  0  0  0
   20.5936   38.1756   39.4945 H   0  0  0  0  0  0  0  0  0  0  0  0
   22.9145   37.8661   38.9774 H   0  0  0  0  0  0  0  0  0  0  0  0
   21.8372   40.4596   37.8867 Si  0  0  0  0  0  4  0  0  0  0  0  0
   20.7160   41.3711   38.1233 H   0  0  0  0  0  0  0  0  0  0  0  0
   23.0691   41.2546   37.9550 H   0  0  0  0  0  0  0  0  0  0  0  0
   21.6803   39.8112   36.5639 H   0  0  0  0  0  0  0  0  0  0  0  0
  1  2  1  0
  2  3  1  0
  2  4  1  0
  2  5  1  0
  5  6  1  0
  5  7  1  0
  5  8  1  0
  8  9  1  0
  8 10  1  0
  8 11  1  0
 11 12  1  0
 11 13  1  0
 11 14  1  0
 14 15  1  0
 14 16  1  0
 14 17  1  0
 17 18  1  0
 17 19  1  0
 17 20  1  0
M  END
>  <_TriposChargeType>  (4) 
NO_CHARGES

$$$$
Molecule Name
     RDKit          3D

 20 19  0  0  0  0  0  0  0  0999 V2000
   21.8259   42.7118   40.9658 O   0  0  0  0  0  0  0  0  0  0  0  0
   20.1558   42.8560   40.6944 Si  0  0  0  0  0  4  0  0  0  0  0  0
   19.6352   44.0701   41.3427 H   0  0  0  0  0  0  0  0  0  0  0  0
   19.8905   42.9931   39.2480 H   0  0  0  0  0  0  0  0  0  0  0  0
   19.1152   41.0401   41.4490 Si  0  0  0  0  0  4  0  0  0  0  0  0
   19.3481   39.9356   40.5160 H   0  0  0  0  0  0  0  0  0  0  0  0
   17.6818   41.3141   41.5885 H   0  0  0  0  0  0  0  0  0  0  0  0
   19.9016   40.5637   43.4786 Si  0  0  0  0  0  4  0  0  0  0  0  0
   19.3864   39.2519   43.9000 H   0  0  0  0  0  0  0  0  0  0  0  0
   19.4621   41.6012   44.4174 H   0  0  0  0  0  0  0  0  0  0  0  0
   22.1348   40.4075   43.4393 Si  0  0  0  0  0  4  0  0  0  0  0  0
   22.6417   40.3599   44.8140 H   0  0  0  0  0  0  0  0  0  0  0  0
   22.7425   41.5742   42.7959 H   0  0  0  0  0  0  0  0  0  0  0  0
   22.7278   38.5146   42.4087 Si  0  0  0  0  0  4  0  0  0  0  0  0
   23.9920   38.0518   42.9847 H   0  0  0  0  0  0  0  0  0  0  0  0
   21.7066   37.4690   42.6430 H   0  0  0  0  0  0  0  0  0  0  0  0
   23.0245   38.8643   40.2309 Si  0  0  0  0  0  4  0  0  0  0  0  0
   22.9503   40.2908   39.9067 H   0  0  0  0  0  0  0  0  0  0  0  0
   24.3230   38.3605   39.7756 H   0  0  0  0  0  0  0  0  0  0  0  0
   21.9935   38.1346   39.4620 H   0  0  0  0  0  0  0  0  0  0  0  0
  1  2  1  0
  2  3  1  0
  2  4  1  0
  2  5  1  0
  5  6  1  0
  5  7  1  0
  5  8  1  0
  8  9  1  0
  8 10  1  0
  8 11  1  0
 11 12  1  0
 11 13  1  0
 11 14  1  0
 14 15  1  0
 14 16  1  0
 14 17  1  0
 17 18  1  0
 17 19  1  0
 17 20  1  0
M  END
>  <_TriposChargeType>  (5) 
NO_CHARGES

$$$$
Molecule Name
     RDKit          3D

 20 19  0  0  0  0  0  0  0  0999 V2000
   21.8259   42.7118   40.9658 O   0  0  0  0  0  0  0  0  0  0  0  0
   20.1343   42.9280   40.8561 Si  0  0  0  0  0  4  0  0  0  0  0  0
   19.7736   43.1213   39.4538 H   0  0  0  0  0  0  0  0  0  0  0  0
   19.7116   44.1128   41.6302 H   0  0  0  0  0  0  0  0  0  0  0  0
   19.1557   41.0871   41.6351 Si  0  0  0  0  0  4  0  0  0  0  0  0
   18.6341   40.2353   40.5482 H   0  0  0  0  0  0  0  0  0  0  0  0
   18.0441   41.5053   42.5043 H   0  0  0  0  0  0  0  0  0  0  0  0
   20.6386   39.8699   42.8017 Si  0  0  0  0  0  4  0  0  0  0  0  0
   20.0952   38.5403   43.0369 H   0  0  0  0  0  0  0  0  0  0  0  0
   21.0019   40.5695   44.0523 H   0  0  0  0  0  0  0  0  0  0  0  0
   22.5066   39.6324   41.6021 Si  0  0  0  0  0  4  0  0  0  0  0  0
   23.3867   38.7239   42.3563 H   0  0  0  0  0  0  0  0  0  0  0  0
   23.2282   40.8997   41.4339 H   0  0  0  0  0  0  0  0  0  0  0  0
   22.0783   38.7716   39.5991 Si  0  0  0  0  0  4  0  0  0  0  0  0
   20.7737   38.0909   39.6241 H   0  0  0  0  0  0  0  0  0  0  0  0
   23.1301   37.8030   39.2859 H   0  0  0  0  0  0  0  0  0  0  0  0
   22.0915   40.3233   38.0031 Si  0  0  0  0  0  4  0  0  0  0  0  0
   20.9419   41.2228   38.1179 H   0  0  0  0  0  0  0  0  0  0  0  0
   23.3027   41.1441   38.1205 H   0  0  0  0  0  0  0  0  0  0  0  0
   22.0392   39.6128   36.7041 H   0  0  0  0  0  0  0  0  0  0  0  0
  1  2  1  0
  2  3  1  0
  2  4  1  0
  2  5  1  0
  5  6  1  0
  5  7  1  0
  5  8  1  0
  8  9  1  0
  8 10  1  0
  8 11  1  0
 11 12  1  0
 11 13  1  0
 11 14  1  0
 14 15  1  0
 14 16  1  0
 14 17  1  0
 17 18  1  0
 17 19  1  0
 17 20  1  0
M  END
>  <_TriposChargeType>  (6) 
NO_CHARGES

$$$$
Molecule Name
     RDKit          3D

 20 19  0  0  0  0  0  0  0  0999 V2000
   21.8259   42.7118   40.9658 O   0  0  0  0  0  0  0  0  0  0  0  0
   20.3175   42.9997   41.6907 Si  0  0  0  0  0  4  0  0  0  0  0  0
   20.4675   43.9034   42.8422 H   0  0  0  0  0  0  0  0  0  0  0  0
   19.4175   43.6711   40.7313 H   0  0  0  0  0  0  0  0  0  0  0  0
   19.4021   41.0677   42.3068 Si  0  0  0  0  0  4  0  0  0  0  0  0
   18.8950   40.3804   41.1173 H   0  0  0  0  0  0  0  0  0  0  0  0
   18.3232   41.3164   43.2677 H   0  0  0  0  0  0  0  0  0  0  0  0
   20.9505   39.8488   43.3466 Si  0  0  0  0  0  4  0  0  0  0  0  0
   20.4282   38.4914   43.5670 H   0  0  0  0  0  0  0  0  0  0  0  0
   21.2714   40.4784   44.6317 H   0  0  0  0  0  0  0  0  0  0  0  0
   22.7792   39.6468   42.0705 Si  0  0  0  0  0  4  0  0  0  0  0  0
   23.8678   39.0773   42.8702 H   0  0  0  0  0  0  0  0  0  0  0  0
   23.2384   40.9486   41.5821 H   0  0  0  0  0  0  0  0  0  0  0  0
   22.3512   38.2521   40.3768 Si  0  0  0  0  0  4  0  0  0  0  0  0
   23.5949   37.5687   40.0159 H   0  0  0  0  0  0  0  0  0  0  0  0
   21.3704   37.2273   40.8000 H   0  0  0  0  0  0  0  0  0  0  0  0
   21.6151   39.3736   38.6010 Si  0  0  0  0  0  4  0  0  0  0  0  0
   21.7137   40.8204   38.8077 H   0  0  0  0  0  0  0  0  0  0  0  0
   22.3745   39.0329   37.3950 H   0  0  0  0  0  0  0  0  0  0  0  0
   20.2065   39.0140   38.3307 H   0  0  0  0  0  0  0  0  0  0  0  0
  1  2  1  0
  2  3  1  0
  2  4  1  0
  2  5  1  0
  5  6  1  0
  5  7  1  0
  5  8  1  0
  8  9  1  0
  8 10  1  0
  8 11  1  0
 11 12  1  0
 11 13  1  0
 11 14  1  0
 14 15  1  0
 14 16  1  0
 14 17  1  0
 17 18  1  0
 17 19  1  0
 17 20  1  0
M  END
>  <_TriposChargeType>  (7) 
NO_CHARGES

$$$$
Molecule Name
     RDKit          3D

 20 19  0  0  0  0  0  0  0  0999 V2000
   21.8259   42.7118   40.9658 O   0  0  0  0  0  0  0  0  0  0  0  0
   20.5714   42.4385   39.8146 Si  0  0  0  0  0  4  0  0  0  0  0  0
   20.6503   43.4316   38.7336 H   0  0  0  0  0  0  0  0  0  0  0  0
   19.2921   42.5200   40.5282 H   0  0  0  0  0  0  0  0  0  0  0  0
   20.8190   40.3666   38.9776 Si  0  0  0  0  0  4  0  0  0  0  0  0
   21.7607   40.3935   37.8361 H   0  0  0  0  0  0  0  0  0  0  0  0
   19.5416   39.7869   38.5950 H   0  0  0  0  0  0  0  0  0  0  0  0
   21.8031   39.1465   40.5826 Si  0  0  0  0  0  4  0  0  0  0  0  0
   20.9423   39.2439   41.7859 H   0  0  0  0  0  0  0  0  0  0  0  0
   21.9760   37.7558   40.1914 H   0  0  0  0  0  0  0  0  0  0  0  0
   23.7784   40.1345   40.9877 Si  0  0  0  0  0  4  0  0  0  0  0  0
   23.8164   41.5054   40.4882 H   0  0  0  0  0  0  0  0  0  0  0  0
   24.8382   39.2942   40.3880 H   0  0  0  0  0  0  0  0  0  0  0  0
   24.0853   40.0498   43.2124 Si  0  0  0  0  0  4  0  0  0  0  0  0
   25.2184   40.8723   43.6281 H   0  0  0  0  0  0  0  0  0  0  0  0
   22.8626   40.5322   43.8580 H   0  0  0  0  0  0  0  0  0  0  0  0
   24.4112   37.8817   43.7032 Si  0  0  0  0  0  4  0  0  0  0  0  0
   23.7166   37.0146   42.7513 H   0  0  0  0  0  0  0  0  0  0  0  0
   25.8653   37.6470   43.5649 H   0  0  0  0  0  0  0  0  0  0  0  0
   23.9655   37.6186   45.0745 H   0  0  0  0  0  0  0  0  0  0  0  0
  1  2  1  0
  2  3  1  0
  2  4  1  0
  2  5  1  0
  5  6  1  0
  5  7  1  0
  5  8  1  0
  8  9  1  0
  8 10  1  0
  8 11  1  0
 11 12  1  0
 11 13  1  0
 11 14  1  0
 14 15  1  0
 14 16  1  0
 14 17  1  0
 17 18  1  0
 17 19  1  0
 17 20  1  0
M  END
>  <_TriposChargeType>  (8) 
NO_CHARGES

$$$$
Molecule Name
     RDKit          3D

 20 19  0  0  0  0  0  0  0  0999 V2000
   21.8259   42.7118   40.9658 O   0  0  0  0  0  0  0  0  0  0  0  0
   22.1633   41.4167   39.8946 Si  0  0  0  0  0  4  0  0  0  0  0  0
   22.0782   41.8377   38.4964 H   0  0  0  0  0  0  0  0  0  0  0  0
   23.5332   40.9312   40.1290 H   0  0  0  0  0  0  0  0  0  0  0  0
   20.6428   39.8284   40.2597 Si  0  0  0  0  0  4  0  0  0  0  0  0
   21.3017   38.5038   40.3223 H   0  0  0  0  0  0  0  0  0  0  0  0
   19.6840   39.7546   39.1413 H   0  0  0  0  0  0  0  0  0  0  0  0
   19.5891   40.1733   42.1990 Si  0  0  0  0  0  4  0  0  0  0  0  0
   20.4082   40.9643   43.1237 H   0  0  0  0  0  0  0  0  0  0  0  0
   19.3030   38.8891   42.8798 H   0  0  0  0  0  0  0  0  0  0  0  0
   17.6006   41.1569   41.8730 Si  0  0  0  0  0  4  0  0  0  0  0  0
   16.7884   40.2462   41.0423 H   0  0  0  0  0  0  0  0  0  0  0  0
   16.9794   41.2950   43.2046 H   0  0  0  0  0  0  0  0  0  0  0  0
   17.8118   43.1066   40.8338 Si  0  0  0  0  0  4  0  0  0  0  0  0
   17.2753   43.0570   39.4682 H   0  0  0  0  0  0  0  0  0  0  0  0
   19.2055   43.5367   40.7434 H   0  0  0  0  0  0  0  0  0  0  0  0
   16.6545   44.6975   41.9159 Si  0  0  0  0  0  4  0  0  0  0  0  0
   15.3950   44.1696   42.4430 H   0  0  0  0  0  0  0  0  0  0  0  0
   16.4126   45.7923   40.9705 H   0  0  0  0  0  0  0  0  0  0  0  0
   17.5393   45.2071   42.9781 H   0  0  0  0  0  0  0  0  0  0  0  0
  1  2  1  0
  2  3  1  0
  2  4  1  0
  2  5  1  0
  5  6  1  0
  5  7  1  0
  5  8  1  0
  8  9  1  0
  8 10  1  0
  8 11  1  0
 11 12  1  0
 11 13  1  0
 11 14  1  0
 14 15  1  0
 14 16  1  0
 14 17  1  0
 17 18  1  0
 17 19  1  0
 17 20  1  0
M  END
>  <_TriposChargeType>  (9) 
NO_CHARGES

$$$$
Molecule Name
     RDKit          3D

 20 19  0  0  0  0  0  0  0  0999 V2000
   21.8259   42.7118   40.9658 O   0  0  0  0  0  0  0  0  0  0  0  0
   20.1338   42.9502   40.9440 Si  0  0  0  0  0  4  0  0  0  0  0  0
   19.7094   43.1913   39.5671 H   0  0  0  0  0  0  0  0  0  0  0  0
   19.7635   44.1149   41.7734 H   0  0  0  0  0  0  0  0  0  0  0  0
   19.1702   41.0969   41.7120 Si  0  0  0  0  0  4  0  0  0  0  0  0
   18.5868   40.2854   40.6256 H   0  0  0  0  0  0  0  0  0  0  0  0
   18.1065   41.5001   42.6458 H   0  0  0  0  0  0  0  0  0  0  0  0
   20.6913   39.8273   42.7683 Si  0  0  0  0  0  4  0  0  0  0  0  0
   20.1429   38.4971   42.9882 H   0  0  0  0  0  0  0  0  0  0  0  0
   21.1224   40.4833   44.0209 H   0  0  0  0  0  0  0  0  0  0  0  0
   22.4971   39.6066   41.4739 Si  0  0  0  0  0  4  0  0  0  0  0  0
   23.4005   38.6651   42.1568 H   0  0  0  0  0  0  0  0  0  0  0  0
   23.2258   40.8704   41.3103 H   0  0  0  0  0  0  0  0  0  0  0  0
   21.9632   38.8137   39.4682 Si  0  0  0  0  0  4  0  0  0  0  0  0
   20.6528   38.1472   39.5347 H   0  0  0  0  0  0  0  0  0  0  0  0
   22.9866   37.8437   39.0753 H   0  0  0  0  0  0  0  0  0  0  0  0
   21.9202   40.4143   37.9218 Si  0  0  0  0  0  4  0  0  0  0  0  0
   20.7889   41.3226   38.1191 H   0  0  0  0  0  0  0  0  0  0  0  0
   23.1459   41.2175   38.0063 H   0  0  0  0  0  0  0  0  0  0  0  0
   21.7973   39.7455   36.6056 H   0  0  0  0  0  0  0  0  0  0  0  0
  1  2  1  0
  2  3  1  0
  2  4  1  0
  2  5  1  0
  5  6  1  0
  5  7  1  0
  5  8  1  0
  8  9  1  0
  8 10  1  0
  8 11  1  0
 11 12  1  0
 11 13  1  0
 11 14  1  0
 14 15  1  0
 14 16  1  0
 14 17  1  0
 17 18  1  0
 17 19  1  0
 17 20  1  0
M  END
>  <_TriposChargeType>  (10) 
NO_CHARGES

$$$$
Molecule Name
     RDKit          3D

 20 19  0  0  0  0  0  0  0  0999 V2000
   21.8259   42.7118   40.9658 O   0  0  0  0  0  0  0  0  0  0  0  0
   21.7800   41.7878   39.5117 Si  0  0  0  0  0  4  0  0  0  0  0  0
   23.1584   41.4232   39.1463 H   0  0  0  0  0  0  0  0  0  0  0  0
   21.1294   42.5917   38.4571 H   0  0  0  0  0  0  0  0  0  0  0  0
   20.6668   39.8826   39.8392 Si  0  0  0  0  0  4  0  0  0  0  0  0
   21.1279   38.8144   38.9437 H   0  0  0  0  0  0  0  0  0  0  0  0
   19.2265   40.1282   39.5561 H   0  0  0  0  0  0  0  0  0  0  0  0
   20.8375   39.2628   41.9987 Si  0  0  0  0  0  4  0  0  0  0  0  0
   21.0438   37.8179   42.0745 H   0  0  0  0  0  0  0  0  0  0  0  0
   21.9931   39.9902   42.5714 H   0  0  0  0  0  0  0  0  0  0  0  0
   18.9917   39.8983   43.1011 Si  0  0  0  0  0  4  0  0  0  0  0  0
   19.3316   40.3772   44.4373 H   0  0  0  0  0  0  0  0  0  0  0  0
   18.1731   38.6766   43.2681 H   0  0  0  0  0  0  0  0  0  0  0  0
   17.9427   41.4071   41.8740 Si  0  0  0  0  0  4  0  0  0  0  0  0
   18.9026   42.0367   40.9294 H   0  0  0  0  0  0  0  0  0  0  0  0
   16.8838   40.7403   41.0815 H   0  0  0  0  0  0  0  0  0  0  0  0
   17.0505   43.0448   43.0661 Si  0  0  0  0  0  4  0  0  0  0  0  0
   16.5957   42.6190   44.3857 H   0  0  0  0  0  0  0  0  0  0  0  0
   17.9666   44.1971   43.2089 H   0  0  0  0  0  0  0  0  0  0  0  0
   15.8730   43.5555   42.3268 H   0  0  0  0  0  0  0  0  0  0  0  0
  1  2  1  0
  2  3  1  0
  2  4  1  0
  2  5  1  0
  5  6  1  0
  5  7  1  0
  5  8  1  0
  8  9  1  0
  8 10  1  0
  8 11  1  0
 11 12  1  0
 11 13  1  0
 11 14  1  0
 14 15  1  0
 14 16  1  0
 14 17  1  0
 17 18  1  0
 17 19  1  0
 17 20  1  0
M  END
>  <_TriposChargeType>  (11) 
NO_CHARGES

$$$$
Molecule Name
     RDKit          3D

 20 19  0  0  0  0  0  0  0  0999 V2000
   21.8259   42.7118   40.9658 O   0  0  0  0  0  0  0  0  0  0  0  0
   22.3216   41.5279   39.8472 Si  0  0  0  0  0  4  0  0  0  0  0  0
   23.6522   40.9726   40.1703 H   0  0  0  0  0  0  0  0  0  0  0  0
   22.4327   42.1267   38.4988 H   0  0  0  0  0  0  0  0  0  0  0  0
   20.8253   39.8627   39.6779 Si  0  0  0  0  0  4  0  0  0  0  0  0
   19.7085   40.2486   38.8082 H   0  0  0  0  0  0  0  0  0  0  0  0
   20.2666   39.5048   40.9808 H   0  0  0  0  0  0  0  0  0  0  0  0
   21.9562   38.1191   38.8289 Si  0  0  0  0  0  4  0  0  0  0  0  0
   21.0980   36.9497   38.6645 H   0  0  0  0  0  0  0  0  0  0  0  0
   22.5007   38.5629   37.5258 H   0  0  0  0  0  0  0  0  0  0  0  0
   23.6453   37.7185   40.2497 Si  0  0  0  0  0  4  0  0  0  0  0  0
   24.8703   38.3807   39.7770 H   0  0  0  0  0  0  0  0  0  0  0  0
   23.8854   36.2772   40.2869 H   0  0  0  0  0  0  0  0  0  0  0  0
   23.1493   38.5206   42.2633 Si  0  0  0  0  0  4  0  0  0  0  0  0
   22.9522   37.4141   43.2254 H   0  0  0  0  0  0  0  0  0  0  0  0
   21.8931   39.2621   42.1860 H   0  0  0  0  0  0  0  0  0  0  0  0
   24.7550   39.8268   43.0715 Si  0  0  0  0  0  4  0  0  0  0  0  0
   25.2490   39.3471   44.3826 H   0  0  0  0  0  0  0  0  0  0  0  0
   24.2696   41.2055   43.3078 H   0  0  0  0  0  0  0  0  0  0  0  0
   25.9330   39.8261   42.1747 H   0  0  0  0  0  0  0  0  0  0  0  0
  1  2  1  0
  2  3  1  0
  2  4  1  0
  2  5  1  0
  5  6  1  0
  5  7  1  0
  5  8  1  0
  8  9  1  0
  8 10  1  0
  8 11  1  0
 11 12  1  0
 11 13  1  0
 11 14  1  0
 14 15  1  0
 14 16  1  0
 14 17  1  0
 17 18  1  0
 17 19  1  0
 17 20  1  0
M  END
>  <_TriposChargeType>  (12) 
NO_CHARGES

$$$$
Molecule Name
     RDKit          3D

 20 19  0  0  0  0  0  0  0  0999 V2000
   21.8259   42.7118   40.9658 O   0  0  0  0  0  0  0  0  0  0  0  0
   22.2642   41.4103   39.9549 Si  0  0  0  0  0  4  0  0  0  0  0  0
   22.2581   41.8751   38.5636 H   0  0  0  0  0  0  0  0  0  0  0  0
   23.5998   40.9315   40.3032 H   0  0  0  0  0  0  0  0  0  0  0  0
   20.8331   39.7144   40.2334 Si  0  0  0  0  0  4  0  0  0  0  0  0
   20.8993   39.2918   41.6408 H   0  0  0  0  0  0  0  0  0  0  0  0
   21.2842   38.6266   39.3373 H   0  0  0  0  0  0  0  0  0  0  0  0
   18.7635   40.3382   39.7145 Si  0  0  0  0  0  4  0  0  0  0  0  0
   18.7239   41.6693   39.0827 H   0  0  0  0  0  0  0  0  0  0  0  0
   18.1801   39.3587   38.7729 H   0  0  0  0  0  0  0  0  0  0  0  0
   17.4800   40.3066   41.5497 Si  0  0  0  0  0  4  0  0  0  0  0  0
   16.0667   40.4352   41.1990 H   0  0  0  0  0  0  0  0  0  0  0  0
   17.6878   38.9976   42.1942 H   0  0  0  0  0  0  0  0  0  0  0  0
   18.1748   41.9536   42.8871 Si  0  0  0  0  0  4  0  0  0  0  0  0
   19.5203   41.5784   43.3649 H   0  0  0  0  0  0  0  0  0  0  0  0
   17.2418   42.1704   44.0103 H   0  0  0  0  0  0  0  0  0  0  0  0
   18.4171   43.8282   41.6795 Si  0  0  0  0  0  4  0  0  0  0  0  0
   19.4410   44.7131   42.2728 H   0  0  0  0  0  0  0  0  0  0  0  0
   18.9365   43.4128   40.3636 H   0  0  0  0  0  0  0  0  0  0  0  0
   17.1196   44.4875   41.5485 H   0  0  0  0  0  0  0  0  0  0  0  0
  1  2  1  0
  2  3  1  0
  2  4  1  0
  2  5  1  0
  5  6  1  0
  5  7  1  0
  5  8  1  0
  8  9  1  0
  8 10  1  0
  8 11  1  0
 11 12  1  0
 11 13  1  0
 11 14  1  0
 14 15  1  0
 14 16  1  0
 14 17  1  0
 17 18  1  0
 17 19  1  0
 17 20  1  0
M  END
>  <_TriposChargeType>  (13) 
NO_CHARGES

$$$$
Molecule Name
     RDKit          3D

 20 19  0  0  0  0  0  0  0  0999 V2000
   21.8259   42.7118   40.9658 O   0  0  0  0  0  0  0  0  0  0  0  0
   21.7592   41.7997   39.5051 Si  0  0  0  0  0  4  0  0  0  0  0  0
   23.1319   41.4337   39.1198 H   0  0  0  0  0  0  0  0  0  0  0  0
   21.0983   42.6139   38.4649 H   0  0  0  0  0  0  0  0  0  0  0  0
   20.6442   39.8952   39.8310 Si  0  0  0  0  0  4  0  0  0  0  0  0
   21.0910   38.8329   38.9214 H   0  0  0  0  0  0  0  0  0  0  0  0
   19.2014   40.1474   39.5676 H   0  0  0  0  0  0  0  0  0  0  0  0
   20.8395   39.2577   41.9832 Si  0  0  0  0  0  4  0  0  0  0  0  0
   21.0422   37.8116   42.0450 H   0  0  0  0  0  0  0  0  0  0  0  0
   22.0043   39.9770   42.5474 H   0  0  0  0  0  0  0  0  0  0  0  0
   19.0094   39.8898   43.1133 Si  0  0  0  0  0  4  0  0  0  0  0  0
   19.3671   40.3570   44.4490 H   0  0  0  0  0  0  0  0  0  0  0  0
   18.1890   38.6693   43.2806 H   0  0  0  0  0  0  0  0  0  0  0  0
   17.9501   41.4116   41.9113 Si  0  0  0  0  0  4  0  0  0  0  0  0
   18.9003   42.0459   40.9600 H   0  0  0  0  0  0  0  0  0  0  0  0
   16.8794   40.7544   41.1266 H   0  0  0  0  0  0  0  0  0  0  0  0
   17.0777   43.0423   43.1273 Si  0  0  0  0  0  4  0  0  0  0  0  0
   16.6378   42.6074   44.4489 H   0  0  0  0  0  0  0  0  0  0  0  0
   17.9991   44.1907   43.2679 H   0  0  0  0  0  0  0  0  0  0  0  0
   15.8928   43.5625   42.4066 H   0  0  0  0  0  0  0  0  0  0  0  0
  1  2  1  0
  2  3  1  0
  2  4  1  0
  2  5  1  0
  5  6  1  0
  5  7  1  0
  5  8  1  0
  8  9  1  0
  8 10  1  0
  8 11  1  0
 11 12  1  0
 11 13  1  0
 11 14  1  0
 14 15  1  0
 14 16  1  0
 14 17  1  0
 17 18  1  0
 17 19  1  0
 17 20  1  0
M  END
>  <_TriposChargeType>  (14) 
NO_CHARGES

$$$$
Molecule Name
     RDKit          3D

 20 19  0  0  0  0  0  0  0  0999 V2000
   21.8259   42.7118   40.9658 O   0  0  0  0  0  0  0  0  0  0  0  0
   20.1336   42.9371   40.8906 Si  0  0  0  0  0  4  0  0  0  0  0  0
   19.7476   43.1491   39.4977 H   0  0  0  0  0  0  0  0  0  0  0  0
   19.7312   44.1142   41.6868 H   0  0  0  0  0  0  0  0  0  0  0  0
   19.1609   41.0912   41.6654 Si  0  0  0  0  0  4  0  0  0  0  0  0
   18.6150   40.2552   40.5782 H   0  0  0  0  0  0  0  0  0  0  0  0
   18.0678   41.5039   42.5602 H   0  0  0  0  0  0  0  0  0  0  0  0
   20.6596   39.8531   42.7890 Si  0  0  0  0  0  4  0  0  0  0  0  0
   20.1142   38.5232   43.0182 H   0  0  0  0  0  0  0  0  0  0  0  0
   21.0496   40.5357   44.0410 H   0  0  0  0  0  0  0  0  0  0  0  0
   22.5036   39.6218   41.5518 Si  0  0  0  0  0  4  0  0  0  0  0  0
   23.3933   38.7001   42.2782 H   0  0  0  0  0  0  0  0  0  0  0  0
   23.2280   40.8877   41.3854 H   0  0  0  0  0  0  0  0  0  0  0  0
   22.0337   38.7875   39.5469 Si  0  0  0  0  0  4  0  0  0  0  0  0
   20.7266   38.1125   39.5881 H   0  0  0  0  0  0  0  0  0  0  0  0
   23.0748   37.8180   39.2022 H   0  0  0  0  0  0  0  0  0  0  0  0
   22.0245   40.3585   37.9698 Si  0  0  0  0  0  4  0  0  0  0  0  0
   20.8817   41.2618   38.1171 H   0  0  0  0  0  0  0  0  0  0  0  0
   23.2416   41.1723   38.0745 H   0  0  0  0  0  0  0  0  0  0  0  0
   21.9445   39.6642   36.6635 H   0  0  0  0  0  0  0  0  0  0  0  0
  1  2  1  0
  2  3  1  0
  2  4  1  0
  2  5  1  0
  5  6  1  0
  5  7  1  0
  5  8  1  0
  8  9  1  0
  8 10  1  0
  8 11  1  0
 11 12  1  0
 11 13  1  0
 11 14  1  0
 14 15  1  0
 14 16  1  0
 14 17  1  0
 17 18  1  0
 17 19  1  0
 17 20  1  0
M  END
>  <_TriposChargeType>  (15) 
NO_CHARGES

$$$$
Molecule Name
     RDKit          3D

 20 19  0  0  0  0  0  0  0  0999 V2000
   21.8259   42.7118   40.9658 O   0  0  0  0  0  0  0  0  0  0  0  0
   20.9925   42.3286   39.5049 Si  0  0  0  0  0  4  0  0  0  0  0  0
   21.9988   41.9525   38.4783 H   0  0  0  0  0  0  0  0  0  0  0  0
   20.3626   43.5644   39.0306 H   0  0  0  0  0  0  0  0  0  0  0  0
   19.5184   40.6965   39.8169 Si  0  0  0  0  0  4  0  0  0  0  0  0
   18.1865   41.2301   39.5081 H   0  0  0  0  0  0  0  0  0  0  0  0
   19.8587   39.5833   38.9070 H   0  0  0  0  0  0  0  0  0  0  0  0
   19.5333   39.9189   41.8973 Si  0  0  0  0  0  4  0  0  0  0  0  0
   18.5907   40.6700   42.7379 H   0  0  0  0  0  0  0  0  0  0  0  0
   19.0728   38.5105   41.8506 H   0  0  0  0  0  0  0  0  0  0  0  0
   21.5892   40.0128   42.7361 Si  0  0  0  0  0  4  0  0  0  0  0  0
   21.7052   39.0859   43.8819 H   0  0  0  0  0  0  0  0  0  0  0  0
   21.8741   41.3951   43.1160 H   0  0  0  0  0  0  0  0  0  0  0  0
   23.0117   39.4012   41.1360 Si  0  0  0  0  0  4  0  0  0  0  0  0
   22.5858   40.0406   39.8801 H   0  0  0  0  0  0  0  0  0  0  0  0
   24.3717   39.7973   41.4860 H   0  0  0  0  0  0  0  0  0  0  0  0
   22.9120   37.1926   40.7735 Si  0  0  0  0  0  4  0  0  0  0  0  0
   23.1785   36.9066   39.3484 H   0  0  0  0  0  0  0  0  0  0  0  0
   21.5984   36.6454   41.1366 H   0  0  0  0  0  0  0  0  0  0  0  0
   23.9735   36.5031   41.5349 H   0  0  0  0  0  0  0  0  0  0  0  0
  1  2  1  0
  2  3  1  0
  2  4  1  0
  2  5  1  0
  5  6  1  0
  5  7  1  0
  5  8  1  0
  8  9  1  0
  8 10  1  0
  8 11  1  0
 11 12  1  0
 11 13  1  0
 11 14  1  0
 14 15  1  0
 14 16  1  0
 14 17  1  0
 17 18  1  0
 17 19  1  0
 17 20  1  0
M  END
>  <_TriposChargeType>  (16) 
NO_CHARGES

$$$$
Molecule Name
     RDKit          3D

 20 19  0  0  0  0  0  0  0  0999 V2000
   21.8259   42.7118   40.9658 O   0  0  0  0  0  0  0  0  0  0  0  0
   20.2202   42.9997   41.4376 Si  0  0  0  0  0  4  0  0  0  0  0  0
   20.1745   44.0100   42.5064 H   0  0  0  0  0  0  0  0  0  0  0  0
   19.4504   43.5419   40.2998 H   0  0  0  0  0  0  0  0  0  0  0  0
   19.2816   41.0945   42.1002 Si  0  0  0  0  0  4  0  0  0  0  0  0
   18.9734   40.2807   40.9224 H   0  0  0  0  0  0  0  0  0  0  0  0
   18.0674   41.3832   42.8694 H   0  0  0  0  0  0  0  0  0  0  0  0
   20.6969   40.0425   43.4621 Si  0  0  0  0  0  4  0  0  0  0  0  0
   20.1879   38.6898   43.7356 H   0  0  0  0  0  0  0  0  0  0  0  0
   20.8087   40.7996   44.7132 H   0  0  0  0  0  0  0  0  0  0  0  0
   22.6970   39.8036   42.4846 Si  0  0  0  0  0  4  0  0  0  0  0  0
   23.6737   39.3563   43.4821 H   0  0  0  0  0  0  0  0  0  0  0  0
   23.1844   41.0740   41.9435 H   0  0  0  0  0  0  0  0  0  0  0  0
   22.5612   38.2436   40.8894 Si  0  0  0  0  0  4  0  0  0  0  0  0
   23.8636   37.5839   40.7765 H   0  0  0  0  0  0  0  0  0  0  0  0
   21.5595   37.2205   41.2653 H   0  0  0  0  0  0  0  0  0  0  0  0
   22.0592   39.1663   38.9273 Si  0  0  0  0  0  4  0  0  0  0  0  0
   22.0844   40.6288   39.0058 H   0  0  0  0  0  0  0  0  0  0  0  0
   22.9958   38.7501   37.8800 H   0  0  0  0  0  0  0  0  0  0  0  0
   20.7161   38.7238   38.4953 H   0  0  0  0  0  0  0  0  0  0  0  0
  1  2  1  0
  2  3  1  0
  2  4  1  0
  2  5  1  0
  5  6  1  0
  5  7  1  0
  5  8  1  0
  8  9  1  0
  8 10  1  0
  8 11  1  0
 11 12  1  0
 11 13  1  0
 11 14  1  0
 14 15  1  0
 14 16  1  0
 14 17  1  0
 17 18  1  0
 17 19  1  0
 17 20  1  0
M  END
>  <_TriposChargeType>  (17) 
NO_CHARGES

$$$$
Molecule Name
     RDKit          3D

 20 19  0  0  0  0  0  0  0  0999 V2000
   21.8259   42.7118   40.9658 O   0  0  0  0  0  0  0  0  0  0  0  0
   20.3297   42.9981   41.7162 Si  0  0  0  0  0  4  0  0  0  0  0  0
   20.5005   43.8899   42.8741 H   0  0  0  0  0  0  0  0  0  0  0  0
   19.4179   43.6822   40.7771 H   0  0  0  0  0  0  0  0  0  0  0  0
   19.4163   41.0636   42.3271 Si  0  0  0  0  0  4  0  0  0  0  0  0
   18.8886   40.3899   41.1388 H   0  0  0  0  0  0  0  0  0  0  0  0
   18.3529   41.3068   43.3066 H   0  0  0  0  0  0  0  0  0  0  0  0
   20.9755   39.8287   43.3314 Si  0  0  0  0  0  4  0  0  0  0  0  0
   20.4514   38.4712   43.5464 H   0  0  0  0  0  0  0  0  0  0  0  0
   21.3181   40.4445   44.6176 H   0  0  0  0  0  0  0  0  0  0  0  0
   22.7839   39.6326   42.0259 Si  0  0  0  0  0  4  0  0  0  0  0  0
   23.8823   39.0512   42.8034 H   0  0  0  0  0  0  0  0  0  0  0  0
   23.2408   40.9374   41.5434 H   0  0  0  0  0  0  0  0  0  0  0  0
   22.3251   38.2562   40.3254 Si  0  0  0  0  0  4  0  0  0  0  0  0
   23.5606   37.5718   39.9390 H   0  0  0  0  0  0  0  0  0  0  0  0
   21.3469   37.2309   40.7532 H   0  0  0  0  0  0  0  0  0  0  0  0
   21.5666   39.3979   38.5719 Si  0  0  0  0  0  4  0  0  0  0  0  0
   21.6739   40.8422   38.7913 H   0  0  0  0  0  0  0  0  0  0  0  0
   22.3064   39.0663   37.3513 H   0  0  0  0  0  0  0  0  0  0  0  0
   20.1527   39.0461   38.3195 H   0  0  0  0  0  0  0  0  0  0  0  0
  1  2  1  0
  2  3  1  0
  2  4  1  0
  2  5  1  0
  5  6  1  0
  5  7  1  0
  5  8  1  0
  8  9  1  0
  8 10  1  0
  8 11  1  0
 11 12  1  0
 11 13  1  0
 11 14  1  0
 14 15  1  0
 14 16  1  0
 14 17  1  0
 17 18  1  0
 17 19  1  0
 17 20  1  0
M  END
>  <_TriposChargeType>  (18) 
NO_CHARGES

$$$$
Molecule Name
     RDKit          3D

 20 19  0  0  0  0  0  0  0  0999 V2000
   21.8259   42.7118   40.9658 O   0  0  0  0  0  0  0  0  0  0  0  0
   20.3430   42.9961   41.7429 Si  0  0  0  0  0  4  0  0  0  0  0  0
   20.5359   43.8751   42.9071 H   0  0  0  0  0  0  0  0  0  0  0  0
   19.4192   43.6935   40.8256 H   0  0  0  0  0  0  0  0  0  0  0  0
   19.4316   41.0589   42.3483 Si  0  0  0  0  0  4  0  0  0  0  0  0
   18.8823   40.3997   41.1617 H   0  0  0  0  0  0  0  0  0  0  0  0
   18.3850   41.2961   43.3471 H   0  0  0  0  0  0  0  0  0  0  0  0
   21.0016   39.8076   43.3148 Si  0  0  0  0  0  4  0  0  0  0  0  0
   20.4755   38.4500   43.5241 H   0  0  0  0  0  0  0  0  0  0  0  0
   21.3672   40.4087   44.6016 H   0  0  0  0  0  0  0  0  0  0  0  0
   22.7882   39.6180   41.9786 Si  0  0  0  0  0  4  0  0  0  0  0  0
   23.8964   39.0243   42.7324 H   0  0  0  0  0  0  0  0  0  0  0  0
   23.2426   40.9260   41.5023 H   0  0  0  0  0  0  0  0  0  0  0  0
   22.2967   38.2612   40.2714 Si  0  0  0  0  0  4  0  0  0  0  0  0
   23.5231   37.5760   39.8583 H   0  0  0  0  0  0  0  0  0  0  0  0
   21.3213   37.2353   40.7043 H   0  0  0  0  0  0  0  0  0  0  0  0
   21.5150   39.4240   38.5422 Si  0  0  0  0  0  4  0  0  0  0  0  0
   21.6317   40.8655   38.7748 H   0  0  0  0  0  0  0  0  0  0  0  0
   22.2340   39.1022   37.3065 H   0  0  0  0  0  0  0  0  0  0  0  0
   20.0959   39.0804   38.3088 H   0  0  0  0  0  0  0  0  0  0  0  0
  1  2  1  0
  2  3  1  0
  2  4  1  0
  2  5  1  0
  5  6  1  0
  5  7  1  0
  5  8  1  0
  8  9  1  0
  8 10  1  0
  8 11  1  0
 11 12  1  0
 11 13  1  0
 11 14  1  0
 14 15  1  0
 14 16  1  0
 14 17  1  0
 17 18  1  0
 17 19  1  0
 17 20  1  0
M  END
>  <_TriposChargeType>  (19) 
NO_CHARGES

$$$$
Molecule Name
     RDKit          3D

 20 19  0  0  0  0  0  0  0  0999 V2000
   21.8259   42.7118   40.9658 O   0  0  0  0  0  0  0  0  0  0  0  0
   21.7364   41.8389   39.4807 Si  0  0  0  0  0  4  0  0  0  0  0  0
   23.1066   41.3922   39.1184 H   0  0  0  0  0  0  0  0  0  0  0  0
   21.3265   42.7913   38.4444 H   0  0  0  0  0  0  0  0  0  0  0  0
   20.3467   40.1131   39.6373 Si  0  0  0  0  0  4  0  0  0  0  0  0
   19.2644   40.3195   38.6678 H   0  0  0  0  0  0  0  0  0  0  0  0
   21.0996   38.8809   39.3249 H   0  0  0  0  0  0  0  0  0  0  0  0
   19.4794   39.8973   41.6706 Si  0  0  0  0  0  4  0  0  0  0  0  0
   18.2321   40.6655   41.7860 H   0  0  0  0  0  0  0  0  0  0  0  0
   19.1472   38.4656   41.8644 H   0  0  0  0  0  0  0  0  0  0  0  0
   20.9516   40.5444   43.2046 Si  0  0  0  0  0  4  0  0  0  0  0  0
   20.5920   39.9684   44.5178 H   0  0  0  0  0  0  0  0  0  0  0  0
   20.9810   42.0053   43.2343 H   0  0  0  0  0  0  0  0  0  0  0  0
   22.9573   39.7992   42.5881 Si  0  0  0  0  0  4  0  0  0  0  0  0
   23.0995   40.0212   41.1397 H   0  0  0  0  0  0  0  0  0  0  0  0
   24.0068   40.4941   43.3262 H   0  0  0  0  0  0  0  0  0  0  0  0
   23.1218   37.5863   42.8965 Si  0  0  0  0  0  4  0  0  0  0  0  0
   23.9994   37.0005   41.8619 H   0  0  0  0  0  0  0  0  0  0  0  0
   21.8072   36.9344   42.8377 H   0  0  0  0  0  0  0  0  0  0  0  0
   23.7694   37.2995   44.1928 H   0  0  0  0  0  0  0  0  0  0  0  0
  1  2  1  0
  2  3  1  0
  2  4  1  0
  2  5  1  0
  5  6  1  0
  5  7  1  0
  5  8  1  0
  8  9  1  0
  8 10  1  0
  8 11  1  0
 11 12  1  0
 11 13  1  0
 11 14  1  0
 14 15  1  0
 14 16  1  0
 14 17  1  0
 17 18  1  0
 17 19  1  0
 17 20  1  0
M  END
>  <_TriposChargeType>  (20) 
NO_CHARGES

$$$$
Molecule Name
     RDKit          3D

 20 19  0  0  0  0  0  0  0  0999 V2000
   21.8259   42.7118   40.9658 O   0  0  0  0  0  0  0  0  0  0  0  0
   22.1175   41.4743   39.8293 Si  0  0  0  0  0  4  0  0  0  0  0  0
   21.9804   42.0349   38.4808 H   0  0  0  0  0  0  0  0  0  0  0  0
   23.4672   40.9423   40.0013 H   0  0  0  0  0  0  0  0  0  0  0  0
   20.6732   39.7959   40.1438 Si  0  0  0  0  0  4  0  0  0  0  0  0
   20.8731   39.2749   41.5048 H   0  0  0  0  0  0  0  0  0  0  0  0
   20.9959   38.7634   39.1341 H   0  0  0  0  0  0  0  0  0  0  0  0
   18.5804   40.5010   39.8900 Si  0  0  0  0  0  4  0  0  0  0  0  0
   18.5149   41.8735   39.3565 H   0  0  0  0  0  0  0  0  0  0  0  0
   17.8731   39.6030   38.9521 H   0  0  0  0  0  0  0  0  0  0  0  0
   17.4947   40.3707   41.8446 Si  0  0  0  0  0  4  0  0  0  0  0  0
   16.0569   40.5554   41.6551 H   0  0  0  0  0  0  0  0  0  0  0  0
   17.7293   39.0156   42.3744 H   0  0  0  0  0  0  0  0  0  0  0  0
   18.3738   41.9044   43.2081 Si  0  0  0  0  0  4  0  0  0  0  0  0
   19.7499   41.4664   43.5144 H   0  0  0  0  0  0  0  0  0  0  0  0
   17.5697   42.0635   44.4358 H   0  0  0  0  0  0  0  0  0  0  0  0
   18.5448   43.8526   42.1097 Si  0  0  0  0  0  4  0  0  0  0  0  0
   19.6509   44.6706   42.6491 H   0  0  0  0  0  0  0  0  0  0  0  0
   18.9117   43.5182   40.7214 H   0  0  0  0  0  0  0  0  0  0  0  0
   17.2609   44.5486   42.1613 H   0  0  0  0  0  0  0  0  0  0  0  0
  1  2  1  0
  2  3  1  0
  2  4  1  0
  2  5  1  0
  5  6  1  0
  5  7  1  0
  5  8  1  0
  8  9  1  0
  8 10  1  0
  8 11  1  0
 11 12  1  0
 11 13  1  0
 11 14  1  0
 14 15  1  0
 14 16  1  0
 14 17  1  0
 17 18  1  0
 17 19  1  0
 17 20  1  0
M  END
>  <_TriposChargeType>  (21) 
NO_CHARGES

$$$$
Molecule Name
     RDKit          3D

 20 19  0  0  0  0  0  0  0  0999 V2000
   21.8259   42.7118   40.9658 O   0  0  0  0  0  0  0  0  0  0  0  0
   21.9015   41.7460   39.5385 Si  0  0  0  0  0  4  0  0  0  0  0  0
   23.3098   41.3154   39.3403 H   0  0  0  0  0  0  0  0  0  0  0  0
   21.5754   42.6204   38.4080 H   0  0  0  0  0  0  0  0  0  0  0  0
   20.5401   39.9958   39.6711 Si  0  0  0  0  0  4  0  0  0  0  0  0
   19.5543   40.1116   38.5900 H   0  0  0  0  0  0  0  0  0  0  0  0
   21.3461   38.7677   39.5134 H   0  0  0  0  0  0  0  0  0  0  0  0
   19.4818   39.8833   41.6206 Si  0  0  0  0  0  4  0  0  0  0  0  0
   18.2132   40.6226   41.5648 H   0  0  0  0  0  0  0  0  0  0  0  0
   19.1627   38.4578   41.8734 H   0  0  0  0  0  0  0  0  0  0  0  0
   20.7819   40.6648   43.2448 Si  0  0  0  0  0  4  0  0  0  0  0  0
   20.3072   40.1620   44.5516 H   0  0  0  0  0  0  0  0  0  0  0  0
   20.7772   42.1250   43.1828 H   0  0  0  0  0  0  0  0  0  0  0  0
   22.8539   39.9381   42.8749 Si  0  0  0  0  0  4  0  0  0  0  0  0
   23.1331   40.0732   41.4358 H   0  0  0  0  0  0  0  0  0  0  0  0
   23.8107   40.7061   43.6646 H   0  0  0  0  0  0  0  0  0  0  0  0
   23.0343   37.7540   43.3402 Si  0  0  0  0  0  4  0  0  0  0  0  0
   24.0217   37.1293   42.4354 H   0  0  0  0  0  0  0  0  0  0  0  0
   21.7460   37.0639   43.1967 H   0  0  0  0  0  0  0  0  0  0  0  0
   23.5572   37.5663   44.7089 H   0  0  0  0  0  0  0  0  0  0  0  0
  1  2  1  0
  2  3  1  0
  2  4  1  0
  2  5  1  0
  5  6  1  0
  5  7  1  0
  5  8  1  0
  8  9  1  0
  8 10  1  0
  8 11  1  0
 11 12  1  0
 11 13  1  0
 11 14  1  0
 14 15  1  0
 14 16  1  0
 14 17  1  0
 17 18  1  0
 17 19  1  0
 17 20  1  0
M  END
>  <_TriposChargeType>  (22) 
NO_CHARGES

$$$$
Molecule Name
     RDKit          3D

 20 19  0  0  0  0  0  0  0  0999 V2000
   21.8259   42.7118   40.9658 O   0  0  0  0  0  0  0  0  0  0  0  0
   20.1424   42.9800   41.0853 Si  0  0  0  0  0  4  0  0  0  0  0  0
   19.6201   43.2971   39.7584 H   0  0  0  0  0  0  0  0  0  0  0  0
   19.8603   44.1076   41.9965 H   0  0  0  0  0  0  0  0  0  0  0  0
   19.2011   41.1071   41.8336 Si  0  0  0  0  0  4  0  0  0  0  0  0
   18.5203   40.3613   40.7568 H   0  0  0  0  0  0  0  0  0  0  0  0
   18.2198   41.4811   42.8647 H   0  0  0  0  0  0  0  0  0  0  0  0
   20.7709   39.7602   42.7070 Si  0  0  0  0  0  4  0  0  0  0  0  0
   20.2130   38.4302   42.9032 H   0  0  0  0  0  0  0  0  0  0  0  0
   21.3092   40.3450   43.9535 H   0  0  0  0  0  0  0  0  0  0  0  0
   22.4685   39.5739   41.2689 Si  0  0  0  0  0  4  0  0  0  0  0  0
   23.4011   38.5840   41.8338 H   0  0  0  0  0  0  0  0  0  0  0  0
   23.2091   40.8317   41.1118 H   0  0  0  0  0  0  0  0  0  0  0  0
   21.7680   38.8921   39.2737 Si  0  0  0  0  0  4  0  0  0  0  0  0
   20.4527   38.2456   39.4078 H   0  0  0  0  0  0  0  0  0  0  0  0
   22.7382   37.9257   38.7567 H   0  0  0  0  0  0  0  0  0  0  0  0
   21.6415   40.5689   37.8151 Si  0  0  0  0  0  4  0  0  0  0  0  0
   20.5476   41.4853   38.1425 H   0  0  0  0  0  0  0  0  0  0  0  0
   22.8866   41.3457   37.8445 H   0  0  0  0  0  0  0  0  0  0  0  0
   21.4054   39.9692   36.4811 H   0  0  0  0  0  0  0  0  0  0  0  0
  1  2  1  0
  2  3  1  0
  2  4  1  0
  2  5  1  0
  5  6  1  0
  5  7  1  0
  5  8  1  0
  8  9  1  0
  8 10  1  0
  8 11  1  0
 11 12  1  0
 11 13  1  0
 11 14  1  0
 14 15  1  0
 14 16  1  0
 14 17  1  0
 17 18  1  0
 17 19  1  0
 17 20  1  0
M  END
>  <_TriposChargeType>  (23) 
NO_CHARGES

$$$$
