S_SiF2_8_cyclic
     RDKit          3D

 25 25  0  0  1  0  0  0  0  0999 V2000
    0.0382    0.3090    1.6882 S   0  0  0  0  0  0  0  0  0  0  0  0
    1.2419    1.9852    1.1198 Si  0  0  0  0  0  4  0  0  0  0  0  0
   -1.7889    1.4039    1.9211 Si  0  0  0  0  0  4  0  0  0  0  0  0
   -2.2526    1.9466    4.2363 Si  0  0  0  0  0  4  0  0  0  0  0  0
   -1.9624   -0.0836    5.4785 Si  0  0  0  0  0  4  0  0  0  0  0  0
    3.5678   -0.1593    3.2156 Si  0  0  0  0  0  4  0  0  0  0  0  0
    3.5890    1.5419    1.5358 Si  0  0  0  0  0  4  0  0  0  0  0  0
    0.1435   -1.2003    5.0988 Si  0  0  0  0  0  4  0  0  0  0  0  0
    1.8935    0.4090    4.8323 Si  0  0  0  0  0  4  0  0  0  0  0  0
   -2.9537    0.4415    1.3497 F   0  0  0  0  0  0  0  0  0  0  0  0
   -1.7743    2.7071    0.9662 F   0  0  0  0  0  0  0  0  0  0  0  0
   -3.7558    2.5281    4.4203 F   0  0  0  0  0  0  0  0  0  0  0  0
   -1.2570    3.0981    4.7950 F   0  0  0  0  0  0  0  0  0  0  0  0
   -2.1110    0.2403    7.0598 F   0  0  0  0  0  0  0  0  0  0  0  0
   -3.1841   -1.0921    5.1368 F   0  0  0  0  0  0  0  0  0  0  0  0
    0.0502   -2.1826    3.8155 F   0  0  0  0  0  0  0  0  0  0  0  0
    0.4902   -2.1724    6.3486 F   0  0  0  0  0  0  0  0  0  0  0  0
    1.2152    1.8048    4.3718 F   0  0  0  0  0  0  0  0  0  0  0  0
    2.5724    0.7424    6.2646 F   0  0  0  0  0  0  0  0  0  0  0  0
    3.2702   -1.6135    2.5677 F   0  0  0  0  0  0  0  0  0  0  0  0
    5.0212   -0.2764    3.9244 F   0  0  0  0  0  0  0  0  0  0  0  0
    4.3596    2.8673    2.0665 F   0  0  0  0  0  0  0  0  0  0  0  0
    4.3680    1.0473    0.2013 F   0  0  0  0  0  0  0  0  0  0  0  0
    0.9447    2.3222   -0.4315 F   0  0  0  0  0  0  0  0  0  0  0  0
    0.7349    3.2389    2.0042 F   0  0  0  0  0  0  0  0  0  0  0  0
  1  3  1  0
  1  2  1  0
  2 24  1  0
  2  7  1  0
  2 25  1  0
  3 10  1  0
  3 11  1  0
  3  4  1  0
  4 12  1  0
  4  5  1  0
  4 13  1  0
  5 15  1  0
  5 14  1  0
  5  8  1  0
  6 20  1  0
  6  7  1  0
  6  9  1  0
  6 21  1  0
  7 22  1  0
  7 23  1  0
  8  9  1  0
  8 16  1  0
  8 17  1  0
  9 19  1  0
  9 18  1  0
M  END
>  <s_m_entry_id>  (1) 
2

>  <s_m_entry_name>  (1) 
S_SiF2_8_cyclic.1

>  <s_m_Source_Path>  (1) 
/uufs/chpc.utah.edu/common/home/u1319506/mmod_csearch_1

>  <s_m_Source_File>  (1) 
mmod_csearch_1-out.maegz

>  <i_m_Source_File_Index>  (1) 
1

>  <r_mmod_Potential_Energy-S-OPLS>  (1) 
-8.1481819152832

>  <b_mmod_Minimization_Converged-S-OPLS>  (1) 
1

>  <r_mmod_RMS_Derivative-S-OPLS>  (1) 
0.0383599475026131

>  <i_mmod_Times_Found-S-OPLS>  (1) 
2

>  <r_mmod_Relative_Potential_Energy-S-OPLS>  (1) 
0

>  <i_mmod_Conformation-S-OPLS>  (1) 
1

>  <s_m_job_name>  (1) 
mmod_csearch_1

>  <s_m_subgroup_title>  (1) 
mmod_csearch_1-out

>  <s_m_subgroupid>  (1) 
mmod_csearch_1-out

>  <b_m_subgroup_collapsed>  (1) 
0

$$$$
S_SiF2_8_cyclic
     RDKit          3D

 25 25  0  0  1  0  0  0  0  0999 V2000
    0.0382    0.3090    1.6882 S   0  0  0  0  0  0  0  0  0  0  0  0
    1.7504    0.8500    2.8579 Si  0  0  0  0  0  4  0  0  0  0  0  0
   -1.2509   -0.1677    3.3487 Si  0  0  0  0  0  4  0  0  0  0  0  0
   -1.6230    1.4862    5.1199 Si  0  0  0  0  0  4  0  0  0  0  0  0
   -0.7068    0.6260    7.1719 Si  0  0  0  0  0  4  0  0  0  0  0  0
    4.7849    0.1728    5.0625 Si  0  0  0  0  0  4  0  0  0  0  0  0
    3.6411   -0.6468    3.1172 Si  0  0  0  0  0  4  0  0  0  0  0  0
    1.4529   -0.4333    6.9680 Si  0  0  0  0  0  4  0  0  0  0  0  0
    3.2647    1.0936    6.6922 Si  0  0  0  0  0  4  0  0  0  0  0  0
   -0.6107   -1.4928    4.0107 F   0  0  0  0  0  0  0  0  0  0  0  0
   -2.6644   -0.6442    2.7276 F   0  0  0  0  0  0  0  0  0  0  0  0
   -3.2014    1.8126    5.3010 F   0  0  0  0  0  0  0  0  0  0  0  0
   -0.9209    2.9013    4.7500 F   0  0  0  0  0  0  0  0  0  0  0  0
   -0.6064    1.8136    8.2697 F   0  0  0  0  0  0  0  0  0  0  0  0
   -1.7540   -0.4417    7.7956 F   0  0  0  0  0  0  0  0  0  0  0  0
    1.4832   -1.3745    5.6522 F   0  0  0  0  0  0  0  0  0  0  0  0
    1.7395   -1.4259    8.2150 F   0  0  0  0  0  0  0  0  0  0  0  0
    2.6971    2.5189    6.1725 F   0  0  0  0  0  0  0  0  0  0  0  0
    4.0044    1.3833    8.1039 F   0  0  0  0  0  0  0  0  0  0  0  0
    5.6537   -1.0166    5.7378 F   0  0  0  0  0  0  0  0  0  0  0  0
    5.8555    1.3066    4.6225 F   0  0  0  0  0  0  0  0  0  0  0  0
    4.6108   -0.6410    1.8171 F   0  0  0  0  0  0  0  0  0  0  0  0
    3.1636   -2.1798    3.3415 F   0  0  0  0  0  0  0  0  0  0  0  0
    2.2503    2.3014    2.3596 F   0  0  0  0  0  0  0  0  0  0  0  0
    1.1948    1.1148    4.3501 F   0  0  0  0  0  0  0  0  0  0  0  0
  1  3  1  0
  1  2  1  0
  2 24  1  0
  2  7  1  0
  2 25  1  0
  3 10  1  0
  3 11  1  0
  3  4  1  0
  4 12  1  0
  4  5  1  0
  4 13  1  0
  5 15  1  0
  5 14  1  0
  5  8  1  0
  6 20  1  0
  6  7  1  0
  6  9  1  0
  6 21  1  0
  7 22  1  0
  7 23  1  0
  8  9  1  0
  8 16  1  0
  8 17  1  0
  9 19  1  0
  9 18  1  0
M  END
>  <s_m_entry_id>  (2) 
2

>  <s_m_entry_name>  (2) 
S_SiF2_8_cyclic.1

>  <s_m_Source_Path>  (2) 
/uufs/chpc.utah.edu/common/home/u1319506/mmod_csearch_1

>  <s_m_Source_File>  (2) 
mmod_csearch_1-out.maegz

>  <i_m_Source_File_Index>  (2) 
1

>  <r_mmod_Potential_Energy-S-OPLS>  (2) 
-8.1481819152832

>  <b_mmod_Minimization_Converged-S-OPLS>  (2) 
1

>  <r_mmod_RMS_Derivative-S-OPLS>  (2) 
0.0383599475026131

>  <i_mmod_Times_Found-S-OPLS>  (2) 
2

>  <r_mmod_Relative_Potential_Energy-S-OPLS>  (2) 
0

>  <i_mmod_Conformation-S-OPLS>  (2) 
1

>  <s_m_job_name>  (2) 
mmod_csearch_1

>  <s_m_subgroup_title>  (2) 
mmod_csearch_1-out

>  <s_m_subgroupid>  (2) 
mmod_csearch_1-out

>  <b_m_subgroup_collapsed>  (2) 
0

$$$$
S_SiF2_8_cyclic
     RDKit          3D

 25 25  0  0  1  0  0  0  0  0999 V2000
    0.0382    0.3090    1.6882 S   0  0  0  0  0  0  0  0  0  0  0  0
    1.7758    1.4472    2.1884 Si  0  0  0  0  0  4  0  0  0  0  0  0
   -1.3569    1.7480    2.4597 Si  0  0  0  0  0  4  0  0  0  0  0  0
   -1.4332    2.1132    4.8796 Si  0  0  0  0  0  4  0  0  0  0  0  0
   -0.9220    0.0853    6.0421 Si  0  0  0  0  0  4  0  0  0  0  0  0
    4.7268    0.8838    4.5743 Si  0  0  0  0  0  4  0  0  0  0  0  0
    3.9300    0.3395    2.3758 Si  0  0  0  0  0  4  0  0  0  0  0  0
    1.3272   -0.6985    5.6954 Si  0  0  0  0  0  4  0  0  0  0  0  0
    2.9870    0.9158    6.2477 Si  0  0  0  0  0  4  0  0  0  0  0  0
   -2.8135    1.2792    1.9403 F   0  0  0  0  0  0  0  0  0  0  0  0
   -1.0460    3.1401    1.7009 F   0  0  0  0  0  0  0  0  0  0  0  0
   -2.8919    2.6600    5.3319 F   0  0  0  0  0  0  0  0  0  0  0  0
   -0.3920    3.2726    5.3276 F   0  0  0  0  0  0  0  0  0  0  0  0
   -1.1628    0.2965    7.6308 F   0  0  0  0  0  0  0  0  0  0  0  0
   -1.9753   -1.0623    5.5967 F   0  0  0  0  0  0  0  0  0  0  0  0
    1.5656   -1.0592    4.1374 F   0  0  0  0  0  0  0  0  0  0  0  0
    1.5996   -2.0764    6.5016 F   0  0  0  0  0  0  0  0  0  0  0  0
    2.2979    2.3791    6.3160 F   0  0  0  0  0  0  0  0  0  0  0  0
    3.5868    0.6385    7.7267 F   0  0  0  0  0  0  0  0  0  0  0  0
    5.8844   -0.1621    5.0127 F   0  0  0  0  0  0  0  0  0  0  0  0
    5.4470    2.3348    4.5298 F   0  0  0  0  0  0  0  0  0  0  0  0
    4.9687    0.8532    1.2407 F   0  0  0  0  0  0  0  0  0  0  0  0
    3.8135   -1.2683    2.2014 F   0  0  0  0  0  0  0  0  0  0  0  0
    1.8396    2.7708    1.2676 F   0  0  0  0  0  0  0  0  0  0  0  0
    1.4221    1.9550    3.6797 F   0  0  0  0  0  0  0  0  0  0  0  0
  1  3  1  0
  1  2  1  0
  2 24  1  0
  2  7  1  0
  2 25  1  0
  3 10  1  0
  3 11  1  0
  3  4  1  0
  4 12  1  0
  4  5  1  0
  4 13  1  0
  5 15  1  0
  5 14  1  0
  5  8  1  0
  6 20  1  0
  6  7  1  0
  6  9  1  0
  6 21  1  0
  7 22  1  0
  7 23  1  0
  8  9  1  0
  8 16  1  0
  8 17  1  0
  9 19  1  0
  9 18  1  0
M  END
>  <s_m_entry_id>  (3) 
2

>  <s_m_entry_name>  (3) 
S_SiF2_8_cyclic.1

>  <s_m_Source_Path>  (3) 
/uufs/chpc.utah.edu/common/home/u1319506/mmod_csearch_1

>  <s_m_Source_File>  (3) 
mmod_csearch_1-out.maegz

>  <i_m_Source_File_Index>  (3) 
1

>  <r_mmod_Potential_Energy-S-OPLS>  (3) 
-8.1481819152832

>  <b_mmod_Minimization_Converged-S-OPLS>  (3) 
1

>  <r_mmod_RMS_Derivative-S-OPLS>  (3) 
0.0383599475026131

>  <i_mmod_Times_Found-S-OPLS>  (3) 
2

>  <r_mmod_Relative_Potential_Energy-S-OPLS>  (3) 
0

>  <i_mmod_Conformation-S-OPLS>  (3) 
1

>  <s_m_job_name>  (3) 
mmod_csearch_1

>  <s_m_subgroup_title>  (3) 
mmod_csearch_1-out

>  <s_m_subgroupid>  (3) 
mmod_csearch_1-out

>  <b_m_subgroup_collapsed>  (3) 
0

$$$$
S_SiF2_8_cyclic
     RDKit          3D

 25 25  0  0  1  0  0  0  0  0999 V2000
    0.0382    0.3090    1.6882 S   0  0  0  0  0  0  0  0  0  0  0  0
   -1.1932   -0.3453    3.3151 Si  0  0  0  0  0  4  0  0  0  0  0  0
    1.7584   -0.8481    2.2200 Si  0  0  0  0  0  4  0  0  0  0  0  0
    3.7683    0.0973    1.2474 Si  0  0  0  0  0  4  0  0  0  0  0  0
    3.2010    2.3869    0.8580 Si  0  0  0  0  0  4  0  0  0  0  0  0
   -1.6796    3.3901    4.1563 Si  0  0  0  0  0  4  0  0  0  0  0  0
   -1.2386    1.2482    5.1394 Si  0  0  0  0  0  4  0  0  0  0  0  0
    2.0032    3.1932    2.7697 Si  0  0  0  0  0  4  0  0  0  0  0  0
   -0.2140    3.9770    2.3304 Si  0  0  0  0  0  4  0  0  0  0  0  0
    1.5087   -2.3745    1.7546 F   0  0  0  0  0  0  0  0  0  0  0  0
    1.8454   -0.8311    3.8334 F   0  0  0  0  0  0  0  0  0  0  0  0
    4.1965   -0.6494   -0.1280 F   0  0  0  0  0  0  0  0  0  0  0  0
    5.0307   -0.0204    2.2595 F   0  0  0  0  0  0  0  0  0  0  0  0
    4.5384    3.2705    0.6149 F   0  0  0  0  0  0  0  0  0  0  0  0
    2.3118    2.5462   -0.4863 F   0  0  0  0  0  0  0  0  0  0  0  0
    2.8585    4.3319    3.5412 F   0  0  0  0  0  0  0  0  0  0  0  0
    1.8958    1.9780    3.8336 F   0  0  0  0  0  0  0  0  0  0  0  0
   -0.1887    5.5856    2.1333 F   0  0  0  0  0  0  0  0  0  0  0  0
   -0.7765    3.3906    0.9304 F   0  0  0  0  0  0  0  0  0  0  0  0
   -3.2203    3.4355    3.6557 F   0  0  0  0  0  0  0  0  0  0  0  0
   -1.5744    4.5290    5.3049 F   0  0  0  0  0  0  0  0  0  0  0  0
    0.1662    1.2762    5.9485 F   0  0  0  0  0  0  0  0  0  0  0  0
   -2.3758    0.8677    6.2322 F   0  0  0  0  0  0  0  0  0  0  0  0
   -2.6796   -0.5070    2.7039 F   0  0  0  0  0  0  0  0  0  0  0  0
   -0.7390   -1.8220    3.7883 F   0  0  0  0  0  0  0  0  0  0  0  0
  1  3  1  0
  1  2  1  0
  2 24  1  0
  2  7  1  0
  2 25  1  0
  3 10  1  0
  3 11  1  0
  3  4  1  0
  4 12  1  0
  4  5  1  0
  4 13  1  0
  5 15  1  0
  5 14  1  0
  5  8  1  0
  6 20  1  0
  6  7  1  0
  6  9  1  0
  6 21  1  0
  7 22  1  0
  7 23  1  0
  8  9  1  0
  8 16  1  0
  8 17  1  0
  9 19  1  0
  9 18  1  0
M  END
>  <s_m_entry_id>  (4) 
2

>  <s_m_entry_name>  (4) 
S_SiF2_8_cyclic.1

>  <s_m_Source_Path>  (4) 
/uufs/chpc.utah.edu/common/home/u1319506/mmod_csearch_1

>  <s_m_Source_File>  (4) 
mmod_csearch_1-out.maegz

>  <i_m_Source_File_Index>  (4) 
1

>  <r_mmod_Potential_Energy-S-OPLS>  (4) 
-8.1481819152832

>  <b_mmod_Minimization_Converged-S-OPLS>  (4) 
1

>  <r_mmod_RMS_Derivative-S-OPLS>  (4) 
0.0383599475026131

>  <i_mmod_Times_Found-S-OPLS>  (4) 
2

>  <r_mmod_Relative_Potential_Energy-S-OPLS>  (4) 
0

>  <i_mmod_Conformation-S-OPLS>  (4) 
1

>  <s_m_job_name>  (4) 
mmod_csearch_1

>  <s_m_subgroup_title>  (4) 
mmod_csearch_1-out

>  <s_m_subgroupid>  (4) 
mmod_csearch_1-out

>  <b_m_subgroup_collapsed>  (4) 
0

$$$$
S_SiF2_8_cyclic
     RDKit          3D

 25 25  0  0  1  0  0  0  0  0999 V2000
    0.0382    0.3090    1.6882 S   0  0  0  0  0  0  0  0  0  0  0  0
   -0.4309   -0.0819    3.7406 Si  0  0  0  0  0  4  0  0  0  0  0  0
    1.8601    1.3447    2.1279 Si  0  0  0  0  0  4  0  0  0  0  0  0
    3.8936    0.0262    2.4272 Si  0  0  0  0  0  4  0  0  0  0  0  0
    4.2589   -0.3264    4.7660 Si  0  0  0  0  0  4  0  0  0  0  0  0
   -0.0386    2.9281    6.2493 Si  0  0  0  0  0  4  0  0  0  0  0  0
   -1.6211    1.6387    4.9998 Si  0  0  0  0  0  4  0  0  0  0  0  0
    3.7380    1.6624    5.9917 Si  0  0  0  0  0  4  0  0  0  0  0  0
    1.6471    1.4990    7.1684 Si  0  0  0  0  0  4  0  0  0  0  0  0
    1.5307    2.1290    3.5052 F   0  0  0  0  0  0  0  0  0  0  0  0
    2.0560    2.4929    1.0095 F   0  0  0  0  0  0  0  0  0  0  0  0
    5.1702    0.8004    1.7938 F   0  0  0  0  0  0  0  0  0  0  0  0
    3.8004   -1.3931    1.6481 F   0  0  0  0  0  0  0  0  0  0  0  0
    3.3660   -1.5630    5.3110 F   0  0  0  0  0  0  0  0  0  0  0  0
    5.7992   -0.7552    5.0314 F   0  0  0  0  0  0  0  0  0  0  0  0
    3.7007    2.9015    4.9501 F   0  0  0  0  0  0  0  0  0  0  0  0
    4.9346    2.0103    7.0266 F   0  0  0  0  0  0  0  0  0  0  0  0
    1.0961   -0.0229    7.1244 F   0  0  0  0  0  0  0  0  0  0  0  0
    1.8639    1.8296    8.7393 F   0  0  0  0  0  0  0  0  0  0  0  0
    0.6448    4.0645    5.3192 F   0  0  0  0  0  0  0  0  0  0  0  0
   -0.7904    3.7356    7.4364 F   0  0  0  0  0  0  0  0  0  0  0  0
   -2.6868    0.9618    6.0178 F   0  0  0  0  0  0  0  0  0  0  0  0
   -2.4867    2.5986    4.0204 F   0  0  0  0  0  0  0  0  0  0  0  0
   -1.1948   -1.5031    3.8090 F   0  0  0  0  0  0  0  0  0  0  0  0
    1.0158   -0.3315    4.4228 F   0  0  0  0  0  0  0  0  0  0  0  0
  1  3  1  0
  1  2  1  0
  2 24  1  0
  2  7  1  0
  2 25  1  0
  3 10  1  0
  3 11  1  0
  3  4  1  0
  4 12  1  0
  4  5  1  0
  4 13  1  0
  5 15  1  0
  5 14  1  0
  5  8  1  0
  6 20  1  0
  6  7  1  0
  6  9  1  0
  6 21  1  0
  7 22  1  0
  7 23  1  0
  8  9  1  0
  8 16  1  0
  8 17  1  0
  9 19  1  0
  9 18  1  0
M  END
>  <s_m_entry_id>  (5) 
2

>  <s_m_entry_name>  (5) 
S_SiF2_8_cyclic.1

>  <s_m_Source_Path>  (5) 
/uufs/chpc.utah.edu/common/home/u1319506/mmod_csearch_1

>  <s_m_Source_File>  (5) 
mmod_csearch_1-out.maegz

>  <i_m_Source_File_Index>  (5) 
1

>  <r_mmod_Potential_Energy-S-OPLS>  (5) 
-8.1481819152832

>  <b_mmod_Minimization_Converged-S-OPLS>  (5) 
1

>  <r_mmod_RMS_Derivative-S-OPLS>  (5) 
0.0383599475026131

>  <i_mmod_Times_Found-S-OPLS>  (5) 
2

>  <r_mmod_Relative_Potential_Energy-S-OPLS>  (5) 
0

>  <i_mmod_Conformation-S-OPLS>  (5) 
1

>  <s_m_job_name>  (5) 
mmod_csearch_1

>  <s_m_subgroup_title>  (5) 
mmod_csearch_1-out

>  <s_m_subgroupid>  (5) 
mmod_csearch_1-out

>  <b_m_subgroup_collapsed>  (5) 
0

$$$$
S_SiF2_8_cyclic
     RDKit          3D

 25 25  0  0  1  0  0  0  0  0999 V2000
    0.0382    0.3090    1.6882 S   0  0  0  0  0  0  0  0  0  0  0  0
   -0.5814    1.7671    3.1212 Si  0  0  0  0  0  4  0  0  0  0  0  0
    1.9202   -0.0869    2.6546 Si  0  0  0  0  0  4  0  0  0  0  0  0
    3.5712    1.7124    2.5605 Si  0  0  0  0  0  4  0  0  0  0  0  0
    3.6756    2.7979    4.6827 Si  0  0  0  0  0  4  0  0  0  0  0  0
   -0.4380    5.3930    2.4900 Si  0  0  0  0  0  4  0  0  0  0  0  0
   -2.0027    3.5995    2.4282 Si  0  0  0  0  0  4  0  0  0  0  0  0
    2.9974    5.0976    4.4820 Si  0  0  0  0  0  4  0  0  0  0  0  0
    0.6164    5.4185    4.6398 Si  0  0  0  0  0  4  0  0  0  0  0  0
    2.5184   -1.4374    1.9983 F   0  0  0  0  0  0  0  0  0  0  0  0
    1.5854   -0.4479    4.1930 F   0  0  0  0  0  0  0  0  0  0  0  0
    3.1269    2.8110    1.4533 F   0  0  0  0  0  0  0  0  0  0  0  0
    5.0348    1.1758    2.1126 F   0  0  0  0  0  0  0  0  0  0  0  0
    2.7190    2.0349    5.7439 F   0  0  0  0  0  0  0  0  0  0  0  0
    5.1748    2.6971    5.2898 F   0  0  0  0  0  0  0  0  0  0  0  0
    3.5226    5.6928    3.0707 F   0  0  0  0  0  0  0  0  0  0  0  0
    3.7368    5.9820    5.6209 F   0  0  0  0  0  0  0  0  0  0  0  0
   -0.0429    4.2380    5.5325 F   0  0  0  0  0  0  0  0  0  0  0  0
    0.2709    6.7969    5.4174 F   0  0  0  0  0  0  0  0  0  0  0  0
    0.6929    5.1576    1.3553 F   0  0  0  0  0  0  0  0  0  0  0  0
   -1.1455    6.8133    2.1609 F   0  0  0  0  0  0  0  0  0  0  0  0
   -3.2267    3.8589    3.4601 F   0  0  0  0  0  0  0  0  0  0  0  0
   -2.6334    3.3963    0.9479 F   0  0  0  0  0  0  0  0  0  0  0  0
   -1.1591    1.0046    4.4208 F   0  0  0  0  0  0  0  0  0  0  0  0
    0.8014    2.4658    3.5903 F   0  0  0  0  0  0  0  0  0  0  0  0
  1  3  1  0
  1  2  1  0
  2 24  1  0
  2  7  1  0
  2 25  1  0
  3 10  1  0
  3 11  1  0
  3  4  1  0
  4 12  1  0
  4  5  1  0
  4 13  1  0
  5 15  1  0
  5 14  1  0
  5  8  1  0
  6 20  1  0
  6  7  1  0
  6  9  1  0
  6 21  1  0
  7 22  1  0
  7 23  1  0
  8  9  1  0
  8 16  1  0
  8 17  1  0
  9 19  1  0
  9 18  1  0
M  END
>  <s_m_entry_id>  (6) 
2

>  <s_m_entry_name>  (6) 
S_SiF2_8_cyclic.1

>  <s_m_Source_Path>  (6) 
/uufs/chpc.utah.edu/common/home/u1319506/mmod_csearch_1

>  <s_m_Source_File>  (6) 
mmod_csearch_1-out.maegz

>  <i_m_Source_File_Index>  (6) 
1

>  <r_mmod_Potential_Energy-S-OPLS>  (6) 
-8.1481819152832

>  <b_mmod_Minimization_Converged-S-OPLS>  (6) 
1

>  <r_mmod_RMS_Derivative-S-OPLS>  (6) 
0.0383599475026131

>  <i_mmod_Times_Found-S-OPLS>  (6) 
2

>  <r_mmod_Relative_Potential_Energy-S-OPLS>  (6) 
0

>  <i_mmod_Conformation-S-OPLS>  (6) 
1

>  <s_m_job_name>  (6) 
mmod_csearch_1

>  <s_m_subgroup_title>  (6) 
mmod_csearch_1-out

>  <s_m_subgroupid>  (6) 
mmod_csearch_1-out

>  <b_m_subgroup_collapsed>  (6) 
0

$$$$
S_SiF2_8_cyclic
     RDKit          3D

 25 25  0  0  1  0  0  0  0  0999 V2000
    0.0382    0.3090    1.6882 S   0  0  0  0  0  0  0  0  0  0  0  0
   -0.5206    1.8264    3.0755 Si  0  0  0  0  0  4  0  0  0  0  0  0
    1.8193   -0.2391    2.7697 Si  0  0  0  0  0  4  0  0  0  0  0  0
    3.6790    1.3506    2.7561 Si  0  0  0  0  0  4  0  0  0  0  0  0
    3.6117    2.6808    4.7426 Si  0  0  0  0  0  4  0  0  0  0  0  0
   -0.6935    5.5426    2.7079 Si  0  0  0  0  0  4  0  0  0  0  0  0
   -2.0472    3.5966    2.4382 Si  0  0  0  0  0  4  0  0  0  0  0  0
    2.9248    4.9297    4.2350 Si  0  0  0  0  0  4  0  0  0  0  0  0
    0.6017    5.3336    4.7161 Si  0  0  0  0  0  4  0  0  0  0  0  0
    2.3026   -1.6600    2.1697 F   0  0  0  0  0  0  0  0  0  0  0  0
    1.3743   -0.5391    4.2929 F   0  0  0  0  0  0  0  0  0  0  0  0
    3.5790    2.3247    1.4635 F   0  0  0  0  0  0  0  0  0  0  0  0
    5.1073    0.5915    2.6353 F   0  0  0  0  0  0  0  0  0  0  0  0
    2.5813    2.0238    5.8055 F   0  0  0  0  0  0  0  0  0  0  0  0
    5.0588    2.6806    5.4726 F   0  0  0  0  0  0  0  0  0  0  0  0
    3.1941    5.2272    2.6668 F   0  0  0  0  0  0  0  0  0  0  0  0
    3.8472    5.9896    5.0421 F   0  0  0  0  0  0  0  0  0  0  0  0
   -0.0055    4.0947    5.5651 F   0  0  0  0  0  0  0  0  0  0  0  0
    0.4223    6.6426    5.6532 F   0  0  0  0  0  0  0  0  0  0  0  0
    0.3025    5.6924    1.4399 F   0  0  0  0  0  0  0  0  0  0  0  0
   -1.6025    6.8840    2.7390 F   0  0  0  0  0  0  0  0  0  0  0  0
   -3.3474    3.6558    3.4058 F   0  0  0  0  0  0  0  0  0  0  0  0
   -2.5802    3.4502    0.9135 F   0  0  0  0  0  0  0  0  0  0  0  0
   -0.9651    1.1266    4.4594 F   0  0  0  0  0  0  0  0  0  0  0  0
    0.8909    2.5537    3.3879 F   0  0  0  0  0  0  0  0  0  0  0  0
  1  3  1  0
  1  2  1  0
  2 24  1  0
  2  7  1  0
  2 25  1  0
  3 10  1  0
  3 11  1  0
  3  4  1  0
  4 12  1  0
  4  5  1  0
  4 13  1  0
  5 15  1  0
  5 14  1  0
  5  8  1  0
  6 20  1  0
  6  7  1  0
  6  9  1  0
  6 21  1  0
  7 22  1  0
  7 23  1  0
  8  9  1  0
  8 16  1  0
  8 17  1  0
  9 19  1  0
  9 18  1  0
M  END
>  <s_m_entry_id>  (7) 
2

>  <s_m_entry_name>  (7) 
S_SiF2_8_cyclic.1

>  <s_m_Source_Path>  (7) 
/uufs/chpc.utah.edu/common/home/u1319506/mmod_csearch_1

>  <s_m_Source_File>  (7) 
mmod_csearch_1-out.maegz

>  <i_m_Source_File_Index>  (7) 
1

>  <r_mmod_Potential_Energy-S-OPLS>  (7) 
-8.1481819152832

>  <b_mmod_Minimization_Converged-S-OPLS>  (7) 
1

>  <r_mmod_RMS_Derivative-S-OPLS>  (7) 
0.0383599475026131

>  <i_mmod_Times_Found-S-OPLS>  (7) 
2

>  <r_mmod_Relative_Potential_Energy-S-OPLS>  (7) 
0

>  <i_mmod_Conformation-S-OPLS>  (7) 
1

>  <s_m_job_name>  (7) 
mmod_csearch_1

>  <s_m_subgroup_title>  (7) 
mmod_csearch_1-out

>  <s_m_subgroupid>  (7) 
mmod_csearch_1-out

>  <b_m_subgroup_collapsed>  (7) 
0

$$$$
S_SiF2_8_cyclic
     RDKit          3D

 25 25  0  0  1  0  0  0  0  0999 V2000
    0.0382    0.3090    1.6882 S   0  0  0  0  0  0  0  0  0  0  0  0
   -1.3585    1.9009    2.0649 Si  0  0  0  0  0  4  0  0  0  0  0  0
    1.3841    0.8221    3.2849 Si  0  0  0  0  0  4  0  0  0  0  0  0
    3.6455    1.5192    2.7590 Si  0  0  0  0  0  4  0  0  0  0  0  0
    4.2705    2.8823    4.6198 Si  0  0  0  0  0  4  0  0  0  0  0  0
   -0.8307    5.1860    4.1634 Si  0  0  0  0  0  4  0  0  0  0  0  0
   -0.3460    4.1111    2.0961 Si  0  0  0  0  0  4  0  0  0  0  0  0
    3.1012    4.9894    4.7244 Si  0  0  0  0  0  4  0  0  0  0  0  0
    0.9384    4.8082    5.7538 Si  0  0  0  0  0  4  0  0  0  0  0  0
    1.3849   -0.3895    4.3515 F   0  0  0  0  0  0  0  0  0  0  0  0
    0.7279    2.0755    4.0689 F   0  0  0  0  0  0  0  0  0  0  0  0
    3.7122    2.3731    1.3822 F   0  0  0  0  0  0  0  0  0  0  0  0
    4.6498    0.2576    2.5849 F   0  0  0  0  0  0  0  0  0  0  0  0
    3.9847    2.0579    5.9840 F   0  0  0  0  0  0  0  0  0  0  0  0
    5.8700    3.1419    4.5965 F   0  0  0  0  0  0  0  0  0  0  0  0
    2.9344    5.6208    3.2434 F   0  0  0  0  0  0  0  0  0  0  0  0
    3.9946    6.0686    5.5379 F   0  0  0  0  0  0  0  0  0  0  0  0
    0.7958    3.3439    6.4315 F   0  0  0  0  0  0  0  0  0  0  0  0
    0.8164    5.8590    6.9809 F   0  0  0  0  0  0  0  0  0  0  0  0
   -1.0173    6.7775    3.9229 F   0  0  0  0  0  0  0  0  0  0  0  0
   -2.2484    4.6530    4.7377 F   0  0  0  0  0  0  0  0  0  0  0  0
   -0.7773    5.0191    0.8243 F   0  0  0  0  0  0  0  0  0  0  0  0
    1.2624    3.9114    2.0071 F   0  0  0  0  0  0  0  0  0  0  0  0
   -2.5312    1.8169    0.9561 F   0  0  0  0  0  0  0  0  0  0  0  0
   -2.0448    1.5904    3.4941 F   0  0  0  0  0  0  0  0  0  0  0  0
  1  3  1  0
  1  2  1  0
  2 24  1  0
  2  7  1  0
  2 25  1  0
  3 10  1  0
  3 11  1  0
  3  4  1  0
  4 12  1  0
  4  5  1  0
  4 13  1  0
  5 15  1  0
  5 14  1  0
  5  8  1  0
  6 20  1  0
  6  7  1  0
  6  9  1  0
  6 21  1  0
  7 22  1  0
  7 23  1  0
  8  9  1  0
  8 16  1  0
  8 17  1  0
  9 19  1  0
  9 18  1  0
M  END
>  <s_m_entry_id>  (8) 
2

>  <s_m_entry_name>  (8) 
S_SiF2_8_cyclic.1

>  <s_m_Source_Path>  (8) 
/uufs/chpc.utah.edu/common/home/u1319506/mmod_csearch_1

>  <s_m_Source_File>  (8) 
mmod_csearch_1-out.maegz

>  <i_m_Source_File_Index>  (8) 
1

>  <r_mmod_Potential_Energy-S-OPLS>  (8) 
-8.1481819152832

>  <b_mmod_Minimization_Converged-S-OPLS>  (8) 
1

>  <r_mmod_RMS_Derivative-S-OPLS>  (8) 
0.0383599475026131

>  <i_mmod_Times_Found-S-OPLS>  (8) 
2

>  <r_mmod_Relative_Potential_Energy-S-OPLS>  (8) 
0

>  <i_mmod_Conformation-S-OPLS>  (8) 
1

>  <s_m_job_name>  (8) 
mmod_csearch_1

>  <s_m_subgroup_title>  (8) 
mmod_csearch_1-out

>  <s_m_subgroupid>  (8) 
mmod_csearch_1-out

>  <b_m_subgroup_collapsed>  (8) 
0

$$$$
S_SiF2_8_cyclic
     RDKit          3D

 25 25  0  0  1  0  0  0  0  0999 V2000
    0.0382    0.3090    1.6882 S   0  0  0  0  0  0  0  0  0  0  0  0
    1.3942    0.7930    3.2731 Si  0  0  0  0  0  4  0  0  0  0  0  0
   -1.5060    1.6192    2.3841 Si  0  0  0  0  0  4  0  0  0  0  0  0
   -1.4219    3.9639    1.7071 Si  0  0  0  0  0  4  0  0  0  0  0  0
   -0.4072    5.2458    3.4549 Si  0  0  0  0  0  4  0  0  0  0  0  0
   -0.0972    0.8665    6.9170 Si  0  0  0  0  0  4  0  0  0  0  0  0
    1.1948   -0.4316    5.3763 Si  0  0  0  0  0  4  0  0  0  0  0  0
   -1.1663    4.4760    5.5903 Si  0  0  0  0  0  4  0  0  0  0  0  0
    0.4960    3.1790    6.7469 Si  0  0  0  0  0  4  0  0  0  0  0  0
   -1.3854    1.5294    3.9959 F   0  0  0  0  0  0  0  0  0  0  0  0
   -2.9266    0.9453    2.0158 F   0  0  0  0  0  0  0  0  0  0  0  0
   -2.9164    4.5271    1.4249 F   0  0  0  0  0  0  0  0  0  0  0  0
   -0.6044    4.1517    0.3191 F   0  0  0  0  0  0  0  0  0  0  0  0
    1.2081    5.1554    3.3754 F   0  0  0  0  0  0  0  0  0  0  0  0
   -0.7618    6.8167    3.2723 F   0  0  0  0  0  0  0  0  0  0  0  0
   -2.5062    3.5960    5.3620 F   0  0  0  0  0  0  0  0  0  0  0  0
   -1.6298    5.7307    6.5040 F   0  0  0  0  0  0  0  0  0  0  0  0
    1.9188    3.2790    5.9805 F   0  0  0  0  0  0  0  0  0  0  0  0
    0.7602    3.7977    8.2206 F   0  0  0  0  0  0  0  0  0  0  0  0
   -1.6828    0.6794    6.6437 F   0  0  0  0  0  0  0  0  0  0  0  0
    0.1456    0.3402    8.4304 F   0  0  0  0  0  0  0  0  0  0  0  0
    2.6608   -0.7151    6.0091 F   0  0  0  0  0  0  0  0  0  0  0  0
    0.5155   -1.8872    5.1530 F   0  0  0  0  0  0  0  0  0  0  0  0
    2.8940    0.7131    2.6795 F   0  0  0  0  0  0  0  0  0  0  0  0
    1.1171    2.3642    3.5473 F   0  0  0  0  0  0  0  0  0  0  0  0
  1  3  1  0
  1  2  1  0
  2 24  1  0
  2  7  1  0
  2 25  1  0
  3 10  1  0
  3 11  1  0
  3  4  1  0
  4 12  1  0
  4  5  1  0
  4 13  1  0
  5 15  1  0
  5 14  1  0
  5  8  1  0
  6 20  1  0
  6  7  1  0
  6  9  1  0
  6 21  1  0
  7 22  1  0
  7 23  1  0
  8  9  1  0
  8 16  1  0
  8 17  1  0
  9 19  1  0
  9 18  1  0
M  END
>  <s_m_entry_id>  (9) 
2

>  <s_m_entry_name>  (9) 
S_SiF2_8_cyclic.1

>  <s_m_Source_Path>  (9) 
/uufs/chpc.utah.edu/common/home/u1319506/mmod_csearch_1

>  <s_m_Source_File>  (9) 
mmod_csearch_1-out.maegz

>  <i_m_Source_File_Index>  (9) 
1

>  <r_mmod_Potential_Energy-S-OPLS>  (9) 
-8.1481819152832

>  <b_mmod_Minimization_Converged-S-OPLS>  (9) 
1

>  <r_mmod_RMS_Derivative-S-OPLS>  (9) 
0.0383599475026131

>  <i_mmod_Times_Found-S-OPLS>  (9) 
2

>  <r_mmod_Relative_Potential_Energy-S-OPLS>  (9) 
0

>  <i_mmod_Conformation-S-OPLS>  (9) 
1

>  <s_m_job_name>  (9) 
mmod_csearch_1

>  <s_m_subgroup_title>  (9) 
mmod_csearch_1-out

>  <s_m_subgroupid>  (9) 
mmod_csearch_1-out

>  <b_m_subgroup_collapsed>  (9) 
0

$$$$
S_SiF2_8_cyclic
     RDKit          3D

 25 25  0  0  1  0  0  0  0  0999 V2000
    0.0382    0.3090    1.6882 S   0  0  0  0  0  0  0  0  0  0  0  0
    1.6002   -0.6410    2.8035 Si  0  0  0  0  0  4  0  0  0  0  0  0
    1.1340    2.1347    1.4589 Si  0  0  0  0  0  4  0  0  0  0  0  0
    1.1551    3.7046    3.3104 Si  0  0  0  0  0  4  0  0  0  0  0  0
    3.4204    4.4343    3.4555 Si  0  0  0  0  0  4  0  0  0  0  0  0
    5.3987   -0.9258    2.8332 Si  0  0  0  0  0  4  0  0  0  0  0  0
    3.4769   -1.5808    1.5833 Si  0  0  0  0  0  4  0  0  0  0  0  0
    4.8629    2.7248    4.3324 Si  0  0  0  0  0  4  0  0  0  0  0  0
    5.8744    1.4172    2.5949 Si  0  0  0  0  0  4  0  0  0  0  0  0
    0.6817    2.8409    0.0787 F   0  0  0  0  0  0  0  0  0  0  0  0
    2.6621    1.6537    1.2330 F   0  0  0  0  0  0  0  0  0  0  0  0
    0.7013    3.0041    4.7006 F   0  0  0  0  0  0  0  0  0  0  0  0
    0.1495    4.9526    3.0611 F   0  0  0  0  0  0  0  0  0  0  0  0
    3.9335    4.8661    1.9814 F   0  0  0  0  0  0  0  0  0  0  0  0
    3.5196    5.7711    4.3662 F   0  0  0  0  0  0  0  0  0  0  0  0
    4.0283    1.7535    5.3217 F   0  0  0  0  0  0  0  0  0  0  0  0
    6.0140    3.3883    5.2592 F   0  0  0  0  0  0  0  0  0  0  0  0
    5.3565    1.9416    1.1542 F   0  0  0  0  0  0  0  0  0  0  0  0
    7.4756    1.6629    2.5864 F   0  0  0  0  0  0  0  0  0  0  0  0
    5.1553   -1.2679    4.3973 F   0  0  0  0  0  0  0  0  0  0  0  0
    6.6837   -1.8056    2.3843 F   0  0  0  0  0  0  0  0  0  0  0  0
    3.5658   -0.9996    0.0721 F   0  0  0  0  0  0  0  0  0  0  0  0
    3.3759   -3.1952    1.4621 F   0  0  0  0  0  0  0  0  0  0  0  0
    2.1910    0.5385    3.7401 F   0  0  0  0  0  0  0  0  0  0  0  0
    0.9383   -1.7176    3.8090 F   0  0  0  0  0  0  0  0  0  0  0  0
  1  3  1  0
  1  2  1  0
  2 24  1  0
  2  7  1  0
  2 25  1  0
  3 10  1  0
  3 11  1  0
  3  4  1  0
  4 12  1  0
  4  5  1  0
  4 13  1  0
  5 15  1  0
  5 14  1  0
  5  8  1  0
  6 20  1  0
  6  7  1  0
  6  9  1  0
  6 21  1  0
  7 22  1  0
  7 23  1  0
  8  9  1  0
  8 16  1  0
  8 17  1  0
  9 19  1  0
  9 18  1  0
M  END
>  <s_m_entry_id>  (10) 
2

>  <s_m_entry_name>  (10) 
S_SiF2_8_cyclic.1

>  <s_m_Source_Path>  (10) 
/uufs/chpc.utah.edu/common/home/u1319506/mmod_csearch_1

>  <s_m_Source_File>  (10) 
mmod_csearch_1-out.maegz

>  <i_m_Source_File_Index>  (10) 
1

>  <r_mmod_Potential_Energy-S-OPLS>  (10) 
-8.1481819152832

>  <b_mmod_Minimization_Converged-S-OPLS>  (10) 
1

>  <r_mmod_RMS_Derivative-S-OPLS>  (10) 
0.0383599475026131

>  <i_mmod_Times_Found-S-OPLS>  (10) 
2

>  <r_mmod_Relative_Potential_Energy-S-OPLS>  (10) 
0

>  <i_mmod_Conformation-S-OPLS>  (10) 
1

>  <s_m_job_name>  (10) 
mmod_csearch_1

>  <s_m_subgroup_title>  (10) 
mmod_csearch_1-out

>  <s_m_subgroupid>  (10) 
mmod_csearch_1-out

>  <b_m_subgroup_collapsed>  (10) 
0

$$$$
S_SiF2_8_cyclic
     RDKit          3D

 25 25  0  0  1  0  0  0  0  0999 V2000
    0.0382    0.3090    1.6882 S   0  0  0  0  0  0  0  0  0  0  0  0
   -0.2457   -0.1806    3.7533 Si  0  0  0  0  0  4  0  0  0  0  0  0
    1.6837    1.6293    2.0546 Si  0  0  0  0  0  4  0  0  0  0  0  0
    3.9216    0.6662    2.2189 Si  0  0  0  0  0  4  0  0  0  0  0  0
    4.4686    0.3503    4.5274 Si  0  0  0  0  0  4  0  0  0  0  0  0
   -0.2225    2.8208    6.3025 Si  0  0  0  0  0  4  0  0  0  0  0  0
   -1.6346    1.3005    5.1097 Si  0  0  0  0  0  4  0  0  0  0  0  0
    3.6922    2.2083    5.8212 Si  0  0  0  0  0  4  0  0  0  0  0  0
    1.7255    1.6825    7.1015 Si  0  0  0  0  0  4  0  0  0  0  0  0
    1.3047    2.3301    3.4638 F   0  0  0  0  0  0  0  0  0  0  0  0
    1.6240    2.8082    0.9525 F   0  0  0  0  0  0  0  0  0  0  0  0
    5.0148    1.6509    1.5368 F   0  0  0  0  0  0  0  0  0  0  0  0
    4.0233   -0.7389    1.4154 F   0  0  0  0  0  0  0  0  0  0  0  0
    3.8253   -1.0251    5.0913 F   0  0  0  0  0  0  0  0  0  0  0  0
    6.0710    0.1820    4.7028 F   0  0  0  0  0  0  0  0  0  0  0  0
    3.3919    3.4367    4.8099 F   0  0  0  0  0  0  0  0  0  0  0  0
    4.8693    2.7385    6.7996 F   0  0  0  0  0  0  0  0  0  0  0  0
    1.4340    0.0905    7.0534 F   0  0  0  0  0  0  0  0  0  0  0  0
    1.9704    2.0250    8.6657 F   0  0  0  0  0  0  0  0  0  0  0  0
    0.2101    4.0672    5.3628 F   0  0  0  0  0  0  0  0  0  0  0  0
   -1.0317    3.4761    7.5444 F   0  0  0  0  0  0  0  0  0  0  0  0
   -2.5151    0.4421    6.1671 F   0  0  0  0  0  0  0  0  0  0  0  0
   -2.7004    2.1143    4.1977 F   0  0  0  0  0  0  0  0  0  0  0  0
   -0.7575   -1.7104    3.8308 F   0  0  0  0  0  0  0  0  0  0  0  0
    1.2577   -0.1932    4.3537 F   0  0  0  0  0  0  0  0  0  0  0  0
  1  3  1  0
  1  2  1  0
  2 24  1  0
  2  7  1  0
  2 25  1  0
  3 10  1  0
  3 11  1  0
  3  4  1  0
  4 12  1  0
  4  5  1  0
  4 13  1  0
  5 15  1  0
  5 14  1  0
  5  8  1  0
  6 20  1  0
  6  7  1  0
  6  9  1  0
  6 21  1  0
  7 22  1  0
  7 23  1  0
  8  9  1  0
  8 16  1  0
  8 17  1  0
  9 19  1  0
  9 18  1  0
M  END
>  <s_m_entry_id>  (11) 
2

>  <s_m_entry_name>  (11) 
S_SiF2_8_cyclic.1

>  <s_m_Source_Path>  (11) 
/uufs/chpc.utah.edu/common/home/u1319506/mmod_csearch_1

>  <s_m_Source_File>  (11) 
mmod_csearch_1-out.maegz

>  <i_m_Source_File_Index>  (11) 
1

>  <r_mmod_Potential_Energy-S-OPLS>  (11) 
-8.1481819152832

>  <b_mmod_Minimization_Converged-S-OPLS>  (11) 
1

>  <r_mmod_RMS_Derivative-S-OPLS>  (11) 
0.0383599475026131

>  <i_mmod_Times_Found-S-OPLS>  (11) 
2

>  <r_mmod_Relative_Potential_Energy-S-OPLS>  (11) 
0

>  <i_mmod_Conformation-S-OPLS>  (11) 
1

>  <s_m_job_name>  (11) 
mmod_csearch_1

>  <s_m_subgroup_title>  (11) 
mmod_csearch_1-out

>  <s_m_subgroupid>  (11) 
mmod_csearch_1-out

>  <b_m_subgroup_collapsed>  (11) 
0

$$$$
S_SiF2_8_cyclic
     RDKit          3D

 25 25  0  0  1  0  0  0  0  0999 V2000
    0.0382    0.3090    1.6882 S   0  0  0  0  0  0  0  0  0  0  0  0
   -0.7357    1.6248    3.1827 Si  0  0  0  0  0  4  0  0  0  0  0  0
    2.0101    0.2215    2.5464 Si  0  0  0  0  0  4  0  0  0  0  0  0
    3.3309    2.2728    2.4052 Si  0  0  0  0  0  4  0  0  0  0  0  0
    3.3697    3.3337    4.5420 Si  0  0  0  0  0  4  0  0  0  0  0  0
   -1.2327    5.2311    2.6232 Si  0  0  0  0  0  4  0  0  0  0  0  0
   -2.4780    3.2020    2.6044 Si  0  0  0  0  0  4  0  0  0  0  0  0
    2.3083    5.4898    4.4266 Si  0  0  0  0  0  4  0  0  0  0  0  0
   -0.0806    5.4057    4.7152 Si  0  0  0  0  0  4  0  0  0  0  0  0
    2.7877   -1.0014    1.8308 F   0  0  0  0  0  0  0  0  0  0  0  0
    1.8252   -0.2097    4.0920 F   0  0  0  0  0  0  0  0  0  0  0  0
    2.6497    3.2954    1.3466 F   0  0  0  0  0  0  0  0  0  0  0  0
    4.8365    1.9944    1.8702 F   0  0  0  0  0  0  0  0  0  0  0  0
    2.6133    2.4081    5.6349 F   0  0  0  0  0  0  0  0  0  0  0  0
    4.8959    3.4776    5.0679 F   0  0  0  0  0  0  0  0  0  0  0  0
    2.6487    6.1822    3.0030 F   0  0  0  0  0  0  0  0  0  0  0  0
    2.9517    6.4711    5.5442 F   0  0  0  0  0  0  0  0  0  0  0  0
   -0.4841    4.1204    5.6153 F   0  0  0  0  0  0  0  0  0  0  0  0
   -0.6074    6.6970    5.5393 F   0  0  0  0  0  0  0  0  0  0  0  0
   -0.1425    5.2026    1.4263 F   0  0  0  0  0  0  0  0  0  0  0  0
   -2.1837    6.5170    2.3622 F   0  0  0  0  0  0  0  0  0  0  0  0
   -3.6696    3.2399    3.7041 F   0  0  0  0  0  0  0  0  0  0  0  0
   -3.1466    2.9148    1.1549 F   0  0  0  0  0  0  0  0  0  0  0  0
   -1.1061    0.7600    4.4939 F   0  0  0  0  0  0  0  0  0  0  0  0
    0.5353    2.5390    3.5940 F   0  0  0  0  0  0  0  0  0  0  0  0
  1  3  1  0
  1  2  1  0
  2 24  1  0
  2  7  1  0
  2 25  1  0
  3 10  1  0
  3 11  1  0
  3  4  1  0
  4 12  1  0
  4  5  1  0
  4 13  1  0
  5 15  1  0
  5 14  1  0
  5  8  1  0
  6 20  1  0
  6  7  1  0
  6  9  1  0
  6 21  1  0
  7 22  1  0
  7 23  1  0
  8  9  1  0
  8 16  1  0
  8 17  1  0
  9 19  1  0
  9 18  1  0
M  END
>  <s_m_entry_id>  (12) 
2

>  <s_m_entry_name>  (12) 
S_SiF2_8_cyclic.1

>  <s_m_Source_Path>  (12) 
/uufs/chpc.utah.edu/common/home/u1319506/mmod_csearch_1

>  <s_m_Source_File>  (12) 
mmod_csearch_1-out.maegz

>  <i_m_Source_File_Index>  (12) 
1

>  <r_mmod_Potential_Energy-S-OPLS>  (12) 
-8.1481819152832

>  <b_mmod_Minimization_Converged-S-OPLS>  (12) 
1

>  <r_mmod_RMS_Derivative-S-OPLS>  (12) 
0.0383599475026131

>  <i_mmod_Times_Found-S-OPLS>  (12) 
2

>  <r_mmod_Relative_Potential_Energy-S-OPLS>  (12) 
0

>  <i_mmod_Conformation-S-OPLS>  (12) 
1

>  <s_m_job_name>  (12) 
mmod_csearch_1

>  <s_m_subgroup_title>  (12) 
mmod_csearch_1-out

>  <s_m_subgroupid>  (12) 
mmod_csearch_1-out

>  <b_m_subgroup_collapsed>  (12) 
0

$$$$
S_SiF2_8_cyclic
     RDKit          3D

 25 25  0  0  1  0  0  0  0  0999 V2000
    0.0382    0.3090    1.6882 S   0  0  0  0  0  0  0  0  0  0  0  0
   -0.6882    1.6939    3.1352 Si  0  0  0  0  0  4  0  0  0  0  0  0
    1.9424    0.0532    2.6633 Si  0  0  0  0  0  4  0  0  0  0  0  0
    3.5080    1.9317    2.5870 Si  0  0  0  0  0  4  0  0  0  0  0  0
    3.3297    3.2069    4.6027 Si  0  0  0  0  0  4  0  0  0  0  0  0
   -1.4971    5.3331    2.8573 Si  0  0  0  0  0  4  0  0  0  0  0  0
   -2.5208    3.1915    2.6166 Si  0  0  0  0  0  4  0  0  0  0  0  0
    2.2511    5.3152    4.1802 Si  0  0  0  0  0  4  0  0  0  0  0  0
   -0.0768    5.3186    4.7903 Si  0  0  0  0  0  4  0  0  0  0  0  0
    2.6217   -1.2591    2.0085 F   0  0  0  0  0  0  0  0  0  0  0  0
    1.6380   -0.3362    4.2008 F   0  0  0  0  0  0  0  0  0  0  0  0
    3.1764    2.8915    1.3227 F   0  0  0  0  0  0  0  0  0  0  0  0
    5.0339    1.4239    2.3757 F   0  0  0  0  0  0  0  0  0  0  0  0
    2.4830    2.3734    5.7034 F   0  0  0  0  0  0  0  0  0  0  0  0
    4.7945    3.4397    5.2561 F   0  0  0  0  0  0  0  0  0  0  0  0
    2.3805    5.6733    2.6068 F   0  0  0  0  0  0  0  0  0  0  0  0
    3.0272    6.5044    4.9607 F   0  0  0  0  0  0  0  0  0  0  0  0
   -0.4217    3.9849    5.6429 F   0  0  0  0  0  0  0  0  0  0  0  0
   -0.4197    6.5672    5.7635 F   0  0  0  0  0  0  0  0  0  0  0  0
   -0.6113    5.6634    1.5427 F   0  0  0  0  0  0  0  0  0  0  0  0
   -2.6136    6.5030    2.9647 F   0  0  0  0  0  0  0  0  0  0  0  0
   -3.7575    3.0202    3.6518 F   0  0  0  0  0  0  0  0  0  0  0  0
   -3.1051    2.9772    1.1190 F   0  0  0  0  0  0  0  0  0  0  0  0
   -0.9332    0.9123    4.5249 F   0  0  0  0  0  0  0  0  0  0  0  0
    0.5976    2.6432    3.3892 F   0  0  0  0  0  0  0  0  0  0  0  0
  1  3  1  0
  1  2  1  0
  2 24  1  0
  2  7  1  0
  2 25  1  0
  3 10  1  0
  3 11  1  0
  3  4  1  0
  4 12  1  0
  4  5  1  0
  4 13  1  0
  5 15  1  0
  5 14  1  0
  5  8  1  0
  6 20  1  0
  6  7  1  0
  6  9  1  0
  6 21  1  0
  7 22  1  0
  7 23  1  0
  8  9  1  0
  8 16  1  0
  8 17  1  0
  9 19  1  0
  9 18  1  0
M  END
>  <s_m_entry_id>  (13) 
2

>  <s_m_entry_name>  (13) 
S_SiF2_8_cyclic.1

>  <s_m_Source_Path>  (13) 
/uufs/chpc.utah.edu/common/home/u1319506/mmod_csearch_1

>  <s_m_Source_File>  (13) 
mmod_csearch_1-out.maegz

>  <i_m_Source_File_Index>  (13) 
1

>  <r_mmod_Potential_Energy-S-OPLS>  (13) 
-8.1481819152832

>  <b_mmod_Minimization_Converged-S-OPLS>  (13) 
1

>  <r_mmod_RMS_Derivative-S-OPLS>  (13) 
0.0383599475026131

>  <i_mmod_Times_Found-S-OPLS>  (13) 
2

>  <r_mmod_Relative_Potential_Energy-S-OPLS>  (13) 
0

>  <i_mmod_Conformation-S-OPLS>  (13) 
1

>  <s_m_job_name>  (13) 
mmod_csearch_1

>  <s_m_subgroup_title>  (13) 
mmod_csearch_1-out

>  <s_m_subgroupid>  (13) 
mmod_csearch_1-out

>  <b_m_subgroup_collapsed>  (13) 
0

$$$$
S_SiF2_8_cyclic
     RDKit          3D

 25 25  0  0  1  0  0  0  0  0999 V2000
    0.0382    0.3090    1.6882 S   0  0  0  0  0  0  0  0  0  0  0  0
   -1.5811    1.6399    2.1715 Si  0  0  0  0  0  4  0  0  0  0  0  0
    1.3657    1.0200    3.2233 Si  0  0  0  0  0  4  0  0  0  0  0  0
    3.4471    2.0923    2.5953 Si  0  0  0  0  0  4  0  0  0  0  0  0
    3.9380    3.5173    4.4500 Si  0  0  0  0  0  4  0  0  0  0  0  0
   -1.4928    4.9403    4.3100 Si  0  0  0  0  0  4  0  0  0  0  0  0
   -0.9504    3.9877    2.1975 Si  0  0  0  0  0  4  0  0  0  0  0  0
    2.4418    5.3975    4.6609 Si  0  0  0  0  0  4  0  0  0  0  0  0
    0.3993    4.8439    5.7974 Si  0  0  0  0  0  4  0  0  0  0  0  0
    1.6268   -0.1877    4.2620 F   0  0  0  0  0  0  0  0  0  0  0  0
    0.5542    2.1360    4.0672 F   0  0  0  0  0  0  0  0  0  0  0  0
    3.2950    2.9625    1.2357 F   0  0  0  0  0  0  0  0  0  0  0  0
    4.6362    1.0188    2.3420 F   0  0  0  0  0  0  0  0  0  0  0  0
    3.8688    2.6396    5.8091 F   0  0  0  0  0  0  0  0  0  0  0  0
    5.4682    4.0411    4.3490 F   0  0  0  0  0  0  0  0  0  0  0  0
    2.0910    6.0106    3.2045 F   0  0  0  0  0  0  0  0  0  0  0  0
    3.1865    6.6007    5.4498 F   0  0  0  0  0  0  0  0  0  0  0  0
    0.5398    3.3680    6.4499 F   0  0  0  0  0  0  0  0  0  0  0  0
    0.1718    5.8440    7.0516 F   0  0  0  0  0  0  0  0  0  0  0  0
   -1.9547    6.4810    4.1139 F   0  0  0  0  0  0  0  0  0  0  0  0
   -2.7683    4.1704    4.9458 F   0  0  0  0  0  0  0  0  0  0  0  0
   -1.5961    4.8267    0.9698 F   0  0  0  0  0  0  0  0  0  0  0  0
    0.6615    4.0612    2.0205 F   0  0  0  0  0  0  0  0  0  0  0  0
   -2.7826    1.3747    1.1237 F   0  0  0  0  0  0  0  0  0  0  0  0
   -2.1265    1.2010    3.6275 F   0  0  0  0  0  0  0  0  0  0  0  0
  1  3  1  0
  1  2  1  0
  2 24  1  0
  2  7  1  0
  2 25  1  0
  3 10  1  0
  3 11  1  0
  3  4  1  0
  4 12  1  0
  4  5  1  0
  4 13  1  0
  5 15  1  0
  5 14  1  0
  5  8  1  0
  6 20  1  0
  6  7  1  0
  6  9  1  0
  6 21  1  0
  7 22  1  0
  7 23  1  0
  8  9  1  0
  8 16  1  0
  8 17  1  0
  9 19  1  0
  9 18  1  0
M  END
>  <s_m_entry_id>  (14) 
2

>  <s_m_entry_name>  (14) 
S_SiF2_8_cyclic.1

>  <s_m_Source_Path>  (14) 
/uufs/chpc.utah.edu/common/home/u1319506/mmod_csearch_1

>  <s_m_Source_File>  (14) 
mmod_csearch_1-out.maegz

>  <i_m_Source_File_Index>  (14) 
1

>  <r_mmod_Potential_Energy-S-OPLS>  (14) 
-8.1481819152832

>  <b_mmod_Minimization_Converged-S-OPLS>  (14) 
1

>  <r_mmod_RMS_Derivative-S-OPLS>  (14) 
0.0383599475026131

>  <i_mmod_Times_Found-S-OPLS>  (14) 
2

>  <r_mmod_Relative_Potential_Energy-S-OPLS>  (14) 
0

>  <i_mmod_Conformation-S-OPLS>  (14) 
1

>  <s_m_job_name>  (14) 
mmod_csearch_1

>  <s_m_subgroup_title>  (14) 
mmod_csearch_1-out

>  <s_m_subgroupid>  (14) 
mmod_csearch_1-out

>  <b_m_subgroup_collapsed>  (14) 
0

$$$$
S_SiF2_8_cyclic
     RDKit          3D

 25 25  0  0  1  0  0  0  0  0999 V2000
    0.0382    0.3090    1.6882 S   0  0  0  0  0  0  0  0  0  0  0  0
   -0.9883    1.8023    2.8323 Si  0  0  0  0  0  4  0  0  0  0  0  0
    1.8215    0.2578    2.8978 Si  0  0  0  0  0  4  0  0  0  0  0  0
    1.6499   -0.1482    5.3096 Si  0  0  0  0  0  4  0  0  0  0  0  0
    2.3975    1.8227    6.4703 Si  0  0  0  0  0  4  0  0  0  0  0  0
   -1.6826    5.3414    4.0651 Si  0  0  0  0  0  4  0  0  0  0  0  0
   -1.1379    4.1036    2.0813 Si  0  0  0  0  0  4  0  0  0  0  0  0
    1.6093    3.9137    5.5568 Si  0  0  0  0  0  4  0  0  0  0  0  0
   -0.6785    4.3864    6.0386 Si  0  0  0  0  0  4  0  0  0  0  0  0
    2.5264    1.6911    2.6679 F   0  0  0  0  0  0  0  0  0  0  0  0
    2.8193   -0.8190    2.2228 F   0  0  0  0  0  0  0  0  0  0  0  0
    2.5323   -1.4336    5.7564 F   0  0  0  0  0  0  0  0  0  0  0  0
    0.1225   -0.4945    5.7331 F   0  0  0  0  0  0  0  0  0  0  0  0
    1.9688    1.7377    8.0306 F   0  0  0  0  0  0  0  0  0  0  0  0
    4.0179    1.8339    6.4749 F   0  0  0  0  0  0  0  0  0  0  0  0
    1.7083    3.8820    3.9421 F   0  0  0  0  0  0  0  0  0  0  0  0
    2.5483    5.1482    6.0223 F   0  0  0  0  0  0  0  0  0  0  0  0
   -1.4426    3.0147    6.4367 F   0  0  0  0  0  0  0  0  0  0  0  0
   -0.8146    5.3729    7.3163 F   0  0  0  0  0  0  0  0  0  0  0  0
   -1.2107    6.8831    3.9045 F   0  0  0  0  0  0  0  0  0  0  0  0
   -3.2919    5.3889    4.2479 F   0  0  0  0  0  0  0  0  0  0  0  0
   -2.2670    4.3022    0.9340 F   0  0  0  0  0  0  0  0  0  0  0  0
    0.2653    4.6206    1.4553 F   0  0  0  0  0  0  0  0  0  0  0  0
   -2.4566    1.2321    3.1842 F   0  0  0  0  0  0  0  0  0  0  0  0
   -0.2337    1.8561    4.2582 F   0  0  0  0  0  0  0  0  0  0  0  0
  1  3  1  0
  1  2  1  0
  2 24  1  0
  2  7  1  0
  2 25  1  0
  3 10  1  0
  3 11  1  0
  3  4  1  0
  4 12  1  0
  4  5  1  0
  4 13  1  0
  5 15  1  0
  5 14  1  0
  5  8  1  0
  6 20  1  0
  6  7  1  0
  6  9  1  0
  6 21  1  0
  7 22  1  0
  7 23  1  0
  8  9  1  0
  8 16  1  0
  8 17  1  0
  9 19  1  0
  9 18  1  0
M  END
>  <s_m_entry_id>  (15) 
2

>  <s_m_entry_name>  (15) 
S_SiF2_8_cyclic.1

>  <s_m_Source_Path>  (15) 
/uufs/chpc.utah.edu/common/home/u1319506/mmod_csearch_1

>  <s_m_Source_File>  (15) 
mmod_csearch_1-out.maegz

>  <i_m_Source_File_Index>  (15) 
1

>  <r_mmod_Potential_Energy-S-OPLS>  (15) 
-8.1481819152832

>  <b_mmod_Minimization_Converged-S-OPLS>  (15) 
1

>  <r_mmod_RMS_Derivative-S-OPLS>  (15) 
0.0383599475026131

>  <i_mmod_Times_Found-S-OPLS>  (15) 
2

>  <r_mmod_Relative_Potential_Energy-S-OPLS>  (15) 
0

>  <i_mmod_Conformation-S-OPLS>  (15) 
1

>  <s_m_job_name>  (15) 
mmod_csearch_1

>  <s_m_subgroup_title>  (15) 
mmod_csearch_1-out

>  <s_m_subgroupid>  (15) 
mmod_csearch_1-out

>  <b_m_subgroup_collapsed>  (15) 
0

$$$$
S_SiF2_8_cyclic
     RDKit          3D

 25 25  0  0  1  0  0  0  0  0999 V2000
    0.0382    0.3090    1.6882 S   0  0  0  0  0  0  0  0  0  0  0  0
   -1.6514    1.2419    2.6048 Si  0  0  0  0  0  4  0  0  0  0  0  0
    0.2944   -1.1675    3.2265 Si  0  0  0  0  0  4  0  0  0  0  0  0
    1.0232   -0.4244    5.4428 Si  0  0  0  0  0  4  0  0  0  0  0  0
    2.4639    1.4761    5.2494 Si  0  0  0  0  0  4  0  0  0  0  0  0
   -2.2973    4.7336    4.0571 Si  0  0  0  0  0  4  0  0  0  0  0  0
   -2.2556    3.5133    1.9898 Si  0  0  0  0  0  4  0  0  0  0  0  0
    1.3822    3.4352    4.3631 Si  0  0  0  0  0  4  0  0  0  0  0  0
   -0.5497    4.0864    5.5918 Si  0  0  0  0  0  4  0  0  0  0  0  0
    1.3539   -2.2393    2.6433 F   0  0  0  0  0  0  0  0  0  0  0  0
   -1.1107   -1.9563    3.3432 F   0  0  0  0  0  0  0  0  0  0  0  0
    1.7858   -1.6218    6.2277 F   0  0  0  0  0  0  0  0  0  0  0  0
   -0.2465   -0.0497    6.3789 F   0  0  0  0  0  0  0  0  0  0  0  0
    3.0853    1.8346    6.7026 F   0  0  0  0  0  0  0  0  0  0  0  0
    3.7347    1.0872    4.3228 F   0  0  0  0  0  0  0  0  0  0  0  0
    0.8722    3.1641    2.8528 F   0  0  0  0  0  0  0  0  0  0  0  0
    2.4161    4.6766    4.2507 F   0  0  0  0  0  0  0  0  0  0  0  0
   -1.0362    2.8435    6.5079 F   0  0  0  0  0  0  0  0  0  0  0  0
   -0.1965    5.2854    6.6222 F   0  0  0  0  0  0  0  0  0  0  0  0
   -2.1977    6.3231    3.7579 F   0  0  0  0  0  0  0  0  0  0  0  0
   -3.7365    4.5153    4.7692 F   0  0  0  0  0  0  0  0  0  0  0  0
   -3.7006    3.5709    1.2551 F   0  0  0  0  0  0  0  0  0  0  0  0
   -1.1897    4.1786    0.9649 F   0  0  0  0  0  0  0  0  0  0  0  0
   -2.9121    0.2354    2.5673 F   0  0  0  0  0  0  0  0  0  0  0  0
   -1.1883    1.3232    4.1494 F   0  0  0  0  0  0  0  0  0  0  0  0
  1  3  1  0
  1  2  1  0
  2 24  1  0
  2  7  1  0
  2 25  1  0
  3 10  1  0
  3 11  1  0
  3  4  1  0
  4 12  1  0
  4  5  1  0
  4 13  1  0
  5 15  1  0
  5 14  1  0
  5  8  1  0
  6 20  1  0
  6  7  1  0
  6  9  1  0
  6 21  1  0
  7 22  1  0
  7 23  1  0
  8  9  1  0
  8 16  1  0
  8 17  1  0
  9 19  1  0
  9 18  1  0
M  END
>  <s_m_entry_id>  (16) 
2

>  <s_m_entry_name>  (16) 
S_SiF2_8_cyclic.1

>  <s_m_Source_Path>  (16) 
/uufs/chpc.utah.edu/common/home/u1319506/mmod_csearch_1

>  <s_m_Source_File>  (16) 
mmod_csearch_1-out.maegz

>  <i_m_Source_File_Index>  (16) 
1

>  <r_mmod_Potential_Energy-S-OPLS>  (16) 
-8.1481819152832

>  <b_mmod_Minimization_Converged-S-OPLS>  (16) 
1

>  <r_mmod_RMS_Derivative-S-OPLS>  (16) 
0.0383599475026131

>  <i_mmod_Times_Found-S-OPLS>  (16) 
2

>  <r_mmod_Relative_Potential_Energy-S-OPLS>  (16) 
0

>  <i_mmod_Conformation-S-OPLS>  (16) 
1

>  <s_m_job_name>  (16) 
mmod_csearch_1

>  <s_m_subgroup_title>  (16) 
mmod_csearch_1-out

>  <s_m_subgroupid>  (16) 
mmod_csearch_1-out

>  <b_m_subgroup_collapsed>  (16) 
0

$$$$
S_SiF2_8_cyclic
     RDKit          3D

 25 25  0  0  1  0  0  0  0  0999 V2000
    0.0382    0.3090    1.6882 S   0  0  0  0  0  0  0  0  0  0  0  0
   -0.8462    0.3722    3.6373 Si  0  0  0  0  0  4  0  0  0  0  0  0
    2.0506    0.3875    2.4156 Si  0  0  0  0  0  4  0  0  0  0  0  0
    3.1266   -1.7071    3.0619 Si  0  0  0  0  0  4  0  0  0  0  0  0
    2.9409   -1.9819    5.4321 Si  0  0  0  0  0  4  0  0  0  0  0  0
    0.5944    3.0423    6.1479 Si  0  0  0  0  0  4  0  0  0  0  0  0
   -1.2196    2.5559    4.6644 Si  0  0  0  0  0  4  0  0  0  0  0  0
    3.2801    0.1150    6.5352 Si  0  0  0  0  0  4  0  0  0  0  0  0
    1.2289    1.0713    7.3484 Si  0  0  0  0  0  4  0  0  0  0  0  0
    1.9510    1.3528    3.7113 F   0  0  0  0  0  0  0  0  0  0  0  0
    2.9335    1.1999    1.3347 F   0  0  0  0  0  0  0  0  0  0  0  0
    4.6932   -1.6933    2.6430 F   0  0  0  0  0  0  0  0  0  0  0  0
    2.4694   -2.9740    2.2917 F   0  0  0  0  0  0  0  0  0  0  0  0
    1.4943   -2.5909    5.8323 F   0  0  0  0  0  0  0  0  0  0  0  0
    4.0261   -3.0665    5.9545 F   0  0  0  0  0  0  0  0  0  0  0  0
    3.9947    1.1247    5.4903 F   0  0  0  0  0  0  0  0  0  0  0  0
    4.3355   -0.0580    7.7517 F   0  0  0  0  0  0  0  0  0  0  0  0
    0.0228   -0.0023    7.2276 F   0  0  0  0  0  0  0  0  0  0  0  0
    1.3540    1.3968    8.9304 F   0  0  0  0  0  0  0  0  0  0  0  0
    1.8661    3.6290    5.3341 F   0  0  0  0  0  0  0  0  0  0  0  0
    0.1681    4.2120    7.1855 F   0  0  0  0  0  0  0  0  0  0  0  0
   -2.6114    2.5609    5.4969 F   0  0  0  0  0  0  0  0  0  0  0  0
   -1.3642    3.7208    3.5454 F   0  0  0  0  0  0  0  0  0  0  0  0
   -2.2033   -0.5019    3.5908 F   0  0  0  0  0  0  0  0  0  0  0  0
    0.1860   -0.4739    4.5534 F   0  0  0  0  0  0  0  0  0  0  0  0
  1  3  1  0
  1  2  1  0
  2 24  1  0
  2  7  1  0
  2 25  1  0
  3 10  1  0
  3 11  1  0
  3  4  1  0
  4 12  1  0
  4  5  1  0
  4 13  1  0
  5 15  1  0
  5 14  1  0
  5  8  1  0
  6 20  1  0
  6  7  1  0
  6  9  1  0
  6 21  1  0
  7 22  1  0
  7 23  1  0
  8  9  1  0
  8 16  1  0
  8 17  1  0
  9 19  1  0
  9 18  1  0
M  END
>  <s_m_entry_id>  (17) 
2

>  <s_m_entry_name>  (17) 
S_SiF2_8_cyclic.1

>  <s_m_Source_Path>  (17) 
/uufs/chpc.utah.edu/common/home/u1319506/mmod_csearch_1

>  <s_m_Source_File>  (17) 
mmod_csearch_1-out.maegz

>  <i_m_Source_File_Index>  (17) 
1

>  <r_mmod_Potential_Energy-S-OPLS>  (17) 
-8.1481819152832

>  <b_mmod_Minimization_Converged-S-OPLS>  (17) 
1

>  <r_mmod_RMS_Derivative-S-OPLS>  (17) 
0.0383599475026131

>  <i_mmod_Times_Found-S-OPLS>  (17) 
2

>  <r_mmod_Relative_Potential_Energy-S-OPLS>  (17) 
0

>  <i_mmod_Conformation-S-OPLS>  (17) 
1

>  <s_m_job_name>  (17) 
mmod_csearch_1

>  <s_m_subgroup_title>  (17) 
mmod_csearch_1-out

>  <s_m_subgroupid>  (17) 
mmod_csearch_1-out

>  <b_m_subgroup_collapsed>  (17) 
0

$$$$
S_SiF2_8_cyclic
     RDKit          3D

 25 25  0  0  1  0  0  0  0  0999 V2000
    0.0382    0.3090    1.6882 S   0  0  0  0  0  0  0  0  0  0  0  0
   -1.3912    0.9770    3.1384 Si  0  0  0  0  0  4  0  0  0  0  0  0
    1.7554    1.2542    2.5848 Si  0  0  0  0  0  4  0  0  0  0  0  0
    2.3036    0.8148    4.9337 Si  0  0  0  0  0  4  0  0  0  0  0  0
    2.0648    2.8655    6.1696 Si  0  0  0  0  0  4  0  0  0  0  0  0
   -3.6469    3.5300    4.8474 Si  0  0  0  0  0  4  0  0  0  0  0  0
   -2.9124    2.8091    2.6783 Si  0  0  0  0  0  4  0  0  0  0  0  0
    0.1057    4.1684    5.6288 Si  0  0  0  0  0  4  0  0  0  0  0  0
   -1.9253    3.2888    6.5185 Si  0  0  0  0  0  4  0  0  0  0  0  0
    1.5053    2.8381    2.4042 F   0  0  0  0  0  0  0  0  0  0  0  0
    3.0254    0.9153    1.6451 F   0  0  0  0  0  0  0  0  0  0  0  0
    3.8104    0.2352    5.0900 F   0  0  0  0  0  0  0  0  0  0  0  0
    1.3281   -0.3231    5.5548 F   0  0  0  0  0  0  0  0  0  0  0  0
    2.0635    2.5525    7.7595 F   0  0  0  0  0  0  0  0  0  0  0  0
    3.3816    3.7753    5.9169 F   0  0  0  0  0  0  0  0  0  0  0  0
   -0.1090    4.2014    4.0254 F   0  0  0  0  0  0  0  0  0  0  0  0
    0.2894    5.7153    6.0713 F   0  0  0  0  0  0  0  0  0  0  0  0
   -1.7243    1.7227    6.8802 F   0  0  0  0  0  0  0  0  0  0  0  0
   -2.3262    4.0298    7.9020 F   0  0  0  0  0  0  0  0  0  0  0  0
   -4.1329    5.0745    4.7838 F   0  0  0  0  0  0  0  0  0  0  0  0
   -4.9505    2.6748    5.2886 F   0  0  0  0  0  0  0  0  0  0  0  0
   -4.1640    2.3498    1.7547 F   0  0  0  0  0  0  0  0  0  0  0  0
   -2.1703    4.0204    1.8971 F   0  0  0  0  0  0  0  0  0  0  0  0
   -2.2105   -0.3139    3.6552 F   0  0  0  0  0  0  0  0  0  0  0  0
   -0.5287    1.4372    4.4229 F   0  0  0  0  0  0  0  0  0  0  0  0
  1  3  1  0
  1  2  1  0
  2 24  1  0
  2  7  1  0
  2 25  1  0
  3 10  1  0
  3 11  1  0
  3  4  1  0
  4 12  1  0
  4  5  1  0
  4 13  1  0
  5 15  1  0
  5 14  1  0
  5  8  1  0
  6 20  1  0
  6  7  1  0
  6  9  1  0
  6 21  1  0
  7 22  1  0
  7 23  1  0
  8  9  1  0
  8 16  1  0
  8 17  1  0
  9 19  1  0
  9 18  1  0
M  END
>  <s_m_entry_id>  (18) 
2

>  <s_m_entry_name>  (18) 
S_SiF2_8_cyclic.1

>  <s_m_Source_Path>  (18) 
/uufs/chpc.utah.edu/common/home/u1319506/mmod_csearch_1

>  <s_m_Source_File>  (18) 
mmod_csearch_1-out.maegz

>  <i_m_Source_File_Index>  (18) 
1

>  <r_mmod_Potential_Energy-S-OPLS>  (18) 
-8.1481819152832

>  <b_mmod_Minimization_Converged-S-OPLS>  (18) 
1

>  <r_mmod_RMS_Derivative-S-OPLS>  (18) 
0.0383599475026131

>  <i_mmod_Times_Found-S-OPLS>  (18) 
2

>  <r_mmod_Relative_Potential_Energy-S-OPLS>  (18) 
0

>  <i_mmod_Conformation-S-OPLS>  (18) 
1

>  <s_m_job_name>  (18) 
mmod_csearch_1

>  <s_m_subgroup_title>  (18) 
mmod_csearch_1-out

>  <s_m_subgroupid>  (18) 
mmod_csearch_1-out

>  <b_m_subgroup_collapsed>  (18) 
0

$$$$
S_SiF2_8_cyclic
     RDKit          3D

 25 25  0  0  1  0  0  0  0  0999 V2000
    0.0382    0.3090    1.6882 S   0  0  0  0  0  0  0  0  0  0  0  0
    0.8472    2.2346    1.2146 Si  0  0  0  0  0  4  0  0  0  0  0  0
    1.1802    0.1278    3.4907 Si  0  0  0  0  0  4  0  0  0  0  0  0
    3.4956   -0.5809    3.3214 Si  0  0  0  0  0  4  0  0  0  0  0  0
    4.6708    0.8488    4.8243 Si  0  0  0  0  0  4  0  0  0  0  0  0
    1.8313    5.4810    2.9519 Si  0  0  0  0  0  4  0  0  0  0  0  0
   -0.0708    4.1768    2.3466 Si  0  0  0  0  0  4  0  0  0  0  0  0
    4.8458    3.0909    3.9795 Si  0  0  0  0  0  4  0  0  0  0  0  0
    3.0651    4.4940    4.7619 Si  0  0  0  0  0  4  0  0  0  0  0  0
    0.3513   -0.7771    4.5406 F   0  0  0  0  0  0  0  0  0  0  0  0
    1.1916    1.6243    4.1054 F   0  0  0  0  0  0  0  0  0  0  0  0
    4.0714   -0.4073    1.8155 F   0  0  0  0  0  0  0  0  0  0  0  0
    3.6854   -2.1411    3.7223 F   0  0  0  0  0  0  0  0  0  0  0  0
    3.8999    0.8699    6.2483 F   0  0  0  0  0  0  0  0  0  0  0  0
    6.1451    0.2489    5.1294 F   0  0  0  0  0  0  0  0  0  0  0  0
    4.8445    3.0711    2.3613 F   0  0  0  0  0  0  0  0  0  0  0  0
    6.2733    3.7339    4.3961 F   0  0  0  0  0  0  0  0  0  0  0  0
    2.0705    3.6303    5.7020 F   0  0  0  0  0  0  0  0  0  0  0  0
    3.6627    5.6512    5.7254 F   0  0  0  0  0  0  0  0  0  0  0  0
    2.7998    5.6349    1.6630 F   0  0  0  0  0  0  0  0  0  0  0  0
    1.3748    6.9862    3.3422 F   0  0  0  0  0  0  0  0  0  0  0  0
   -0.9106    3.7622    3.6703 F   0  0  0  0  0  0  0  0  0  0  0  0
   -1.0796    5.0154    1.3926 F   0  0  0  0  0  0  0  0  0  0  0  0
    2.4020    2.1272    1.6486 F   0  0  0  0  0  0  0  0  0  0  0  0
    0.8445    2.4180   -0.3899 F   0  0  0  0  0  0  0  0  0  0  0  0
  1  3  1  0
  1  2  1  0
  2 24  1  0
  2  7  1  0
  2 25  1  0
  3 10  1  0
  3 11  1  0
  3  4  1  0
  4 12  1  0
  4  5  1  0
  4 13  1  0
  5 15  1  0
  5 14  1  0
  5  8  1  0
  6 20  1  0
  6  7  1  0
  6  9  1  0
  6 21  1  0
  7 22  1  0
  7 23  1  0
  8  9  1  0
  8 16  1  0
  8 17  1  0
  9 19  1  0
  9 18  1  0
M  END
>  <s_m_entry_id>  (19) 
2

>  <s_m_entry_name>  (19) 
S_SiF2_8_cyclic.1

>  <s_m_Source_Path>  (19) 
/uufs/chpc.utah.edu/common/home/u1319506/mmod_csearch_1

>  <s_m_Source_File>  (19) 
mmod_csearch_1-out.maegz

>  <i_m_Source_File_Index>  (19) 
1

>  <r_mmod_Potential_Energy-S-OPLS>  (19) 
-8.1481819152832

>  <b_mmod_Minimization_Converged-S-OPLS>  (19) 
1

>  <r_mmod_RMS_Derivative-S-OPLS>  (19) 
0.0383599475026131

>  <i_mmod_Times_Found-S-OPLS>  (19) 
2

>  <r_mmod_Relative_Potential_Energy-S-OPLS>  (19) 
0

>  <i_mmod_Conformation-S-OPLS>  (19) 
1

>  <s_m_job_name>  (19) 
mmod_csearch_1

>  <s_m_subgroup_title>  (19) 
mmod_csearch_1-out

>  <s_m_subgroupid>  (19) 
mmod_csearch_1-out

>  <b_m_subgroup_collapsed>  (19) 
0

$$$$
S_SiF2_8_cyclic
     RDKit          3D

 25 25  0  0  1  0  0  0  0  0999 V2000
    0.0382    0.3090    1.6882 S   0  0  0  0  0  0  0  0  0  0  0  0
   -0.6182    2.3399    1.6742 Si  0  0  0  0  0  4  0  0  0  0  0  0
    2.0303    0.7649    2.3605 Si  0  0  0  0  0  4  0  0  0  0  0  0
    2.3869    1.1007    4.7583 Si  0  0  0  0  0  4  0  0  0  0  0  0
    2.2059    3.4171    5.3021 Si  0  0  0  0  0  4  0  0  0  0  0  0
   -2.9564    3.9755    4.0221 Si  0  0  0  0  0  4  0  0  0  0  0  0
   -2.9797    2.8090    1.9500 Si  0  0  0  0  0  4  0  0  0  0  0  0
    0.1597    3.8673    6.4842 Si  0  0  0  0  0  4  0  0  0  0  0  0
   -1.7008    2.6617    5.5759 Si  0  0  0  0  0  4  0  0  0  0  0  0
    2.5212    2.0735    1.5500 F   0  0  0  0  0  0  0  0  0  0  0  0
    2.9706   -0.4394    1.8330 F   0  0  0  0  0  0  0  0  0  0  0  0
    3.8437    0.5481    5.2086 F   0  0  0  0  0  0  0  0  0  0  0  0
    1.3178    0.2716    5.6519 F   0  0  0  0  0  0  0  0  0  0  0  0
    3.4752    3.8786    6.1980 F   0  0  0  0  0  0  0  0  0  0  0  0
    2.2890    4.3154    3.9562 F   0  0  0  0  0  0  0  0  0  0  0  0
   -0.1668    5.4538    6.4556 F   0  0  0  0  0  0  0  0  0  0  0  0
    0.3436    3.4859    8.0481 F   0  0  0  0  0  0  0  0  0  0  0  0
   -1.1391    1.3685    4.7805 F   0  0  0  0  0  0  0  0  0  0  0  0
   -2.6577    2.0857    6.7487 F   0  0  0  0  0  0  0  0  0  0  0  0
   -2.2328    5.4113    3.8270 F   0  0  0  0  0  0  0  0  0  0  0  0
   -4.4546    4.2715    4.5641 F   0  0  0  0  0  0  0  0  0  0  0  0
   -3.8847    1.4668    2.0459 F   0  0  0  0  0  0  0  0  0  0  0  0
   -3.5787    3.7276    0.7544 F   0  0  0  0  0  0  0  0  0  0  0  0
    0.1159    3.0051    2.9553 F   0  0  0  0  0  0  0  0  0  0  0  0
   -0.0104    3.0753    0.3721 F   0  0  0  0  0  0  0  0  0  0  0  0
  1  3  1  0
  1  2  1  0
  2 24  1  0
  2  7  1  0
  2 25  1  0
  3 10  1  0
  3 11  1  0
  3  4  1  0
  4 12  1  0
  4  5  1  0
  4 13  1  0
  5 15  1  0
  5 14  1  0
  5  8  1  0
  6 20  1  0
  6  7  1  0
  6  9  1  0
  6 21  1  0
  7 22  1  0
  7 23  1  0
  8  9  1  0
  8 16  1  0
  8 17  1  0
  9 19  1  0
  9 18  1  0
M  END
>  <s_m_entry_id>  (20) 
2

>  <s_m_entry_name>  (20) 
S_SiF2_8_cyclic.1

>  <s_m_Source_Path>  (20) 
/uufs/chpc.utah.edu/common/home/u1319506/mmod_csearch_1

>  <s_m_Source_File>  (20) 
mmod_csearch_1-out.maegz

>  <i_m_Source_File_Index>  (20) 
1

>  <r_mmod_Potential_Energy-S-OPLS>  (20) 
-8.1481819152832

>  <b_mmod_Minimization_Converged-S-OPLS>  (20) 
1

>  <r_mmod_RMS_Derivative-S-OPLS>  (20) 
0.0383599475026131

>  <i_mmod_Times_Found-S-OPLS>  (20) 
2

>  <r_mmod_Relative_Potential_Energy-S-OPLS>  (20) 
0

>  <i_mmod_Conformation-S-OPLS>  (20) 
1

>  <s_m_job_name>  (20) 
mmod_csearch_1

>  <s_m_subgroup_title>  (20) 
mmod_csearch_1-out

>  <s_m_subgroupid>  (20) 
mmod_csearch_1-out

>  <b_m_subgroup_collapsed>  (20) 
0

$$$$
S_SiF2_8_cyclic
     RDKit          3D

 25 25  0  0  1  0  0  0  0  0999 V2000
    0.0382    0.3090    1.6882 S   0  0  0  0  0  0  0  0  0  0  0  0
   -0.3473    2.4011    1.5449 Si  0  0  0  0  0  4  0  0  0  0  0  0
    2.1060    0.5356    2.2544 Si  0  0  0  0  0  4  0  0  0  0  0  0
    2.6765    0.9326    4.6100 Si  0  0  0  0  0  4  0  0  0  0  0  0
    2.5759    3.2692    5.1350 Si  0  0  0  0  0  4  0  0  0  0  0  0
   -3.1574    3.1087    4.1536 Si  0  0  0  0  0  4  0  0  0  0  0  0
   -2.6440    3.1610    1.8132 Si  0  0  0  0  0  4  0  0  0  0  0  0
    0.3570    4.0855    5.6220 Si  0  0  0  0  0  4  0  0  0  0  0  0
   -1.2757    2.3617    5.4351 Si  0  0  0  0  0  4  0  0  0  0  0  0
    2.7116    1.7318    1.3529 F   0  0  0  0  0  0  0  0  0  0  0  0
    2.8534   -0.8004    1.7359 F   0  0  0  0  0  0  0  0  0  0  0  0
    4.1751    0.3917    4.9148 F   0  0  0  0  0  0  0  0  0  0  0  0
    1.7266    0.1059    5.6315 F   0  0  0  0  0  0  0  0  0  0  0  0
    3.5480    3.5842    6.3930 F   0  0  0  0  0  0  0  0  0  0  0  0
    3.1993    4.1103    3.8982 F   0  0  0  0  0  0  0  0  0  0  0  0
   -0.0499    5.2422    4.5616 F   0  0  0  0  0  0  0  0  0  0  0  0
    0.2911    4.7763    7.0858 F   0  0  0  0  0  0  0  0  0  0  0  0
   -0.5902    1.1197    4.6624 F   0  0  0  0  0  0  0  0  0  0  0  0
   -1.7125    1.8127    6.8946 F   0  0  0  0  0  0  0  0  0  0  0  0
   -3.6004    4.5816    4.6629 F   0  0  0  0  0  0  0  0  0  0  0  0
   -4.4320    2.1457    4.4257 F   0  0  0  0  0  0  0  0  0  0  0  0
   -3.6832    2.2447    0.9702 F   0  0  0  0  0  0  0  0  0  0  0  0
   -2.8127    4.6714    1.2467 F   0  0  0  0  0  0  0  0  0  0  0  0
    0.5155    3.0251    2.7633 F   0  0  0  0  0  0  0  0  0  0  0  0
    0.3140    2.9548    0.1805 F   0  0  0  0  0  0  0  0  0  0  0  0
  1  3  1  0
  1  2  1  0
  2 24  1  0
  2  7  1  0
  2 25  1  0
  3 10  1  0
  3 11  1  0
  3  4  1  0
  4 12  1  0
  4  5  1  0
  4 13  1  0
  5 15  1  0
  5 14  1  0
  5  8  1  0
  6 20  1  0
  6  7  1  0
  6  9  1  0
  6 21  1  0
  7 22  1  0
  7 23  1  0
  8  9  1  0
  8 16  1  0
  8 17  1  0
  9 19  1  0
  9 18  1  0
M  END
>  <s_m_entry_id>  (21) 
2

>  <s_m_entry_name>  (21) 
S_SiF2_8_cyclic.1

>  <s_m_Source_Path>  (21) 
/uufs/chpc.utah.edu/common/home/u1319506/mmod_csearch_1

>  <s_m_Source_File>  (21) 
mmod_csearch_1-out.maegz

>  <i_m_Source_File_Index>  (21) 
1

>  <r_mmod_Potential_Energy-S-OPLS>  (21) 
-8.1481819152832

>  <b_mmod_Minimization_Converged-S-OPLS>  (21) 
1

>  <r_mmod_RMS_Derivative-S-OPLS>  (21) 
0.0383599475026131

>  <i_mmod_Times_Found-S-OPLS>  (21) 
2

>  <r_mmod_Relative_Potential_Energy-S-OPLS>  (21) 
0

>  <i_mmod_Conformation-S-OPLS>  (21) 
1

>  <s_m_job_name>  (21) 
mmod_csearch_1

>  <s_m_subgroup_title>  (21) 
mmod_csearch_1-out

>  <s_m_subgroupid>  (21) 
mmod_csearch_1-out

>  <b_m_subgroup_collapsed>  (21) 
0

$$$$
S_SiF2_8_cyclic
     RDKit          3D

 25 25  0  0  1  0  0  0  0  0999 V2000
    0.0382    0.3090    1.6882 S   0  0  0  0  0  0  0  0  0  0  0  0
    0.0061    2.0069    2.9841 Si  0  0  0  0  0  4  0  0  0  0  0  0
    1.3353   -0.8471    2.9584 Si  0  0  0  0  0  4  0  0  0  0  0  0
    3.6452   -0.0664    3.1239 Si  0  0  0  0  0  4  0  0  0  0  0  0
    3.9606    1.0222    5.2235 Si  0  0  0  0  0  4  0  0  0  0  0  0
    1.9736    5.0556    2.3516 Si  0  0  0  0  0  4  0  0  0  0  0  0
   -0.2368    4.2251    2.0468 Si  0  0  0  0  0  4  0  0  0  0  0  0
    4.5161    3.3395    4.8910 Si  0  0  0  0  0  4  0  0  0  0  0  0
    2.5928    4.7671    4.6467 Si  0  0  0  0  0  4  0  0  0  0  0  0
    1.2913   -2.3717    2.4236 F   0  0  0  0  0  0  0  0  0  0  0  0
    0.6541   -0.8672    4.4228 F   0  0  0  0  0  0  0  0  0  0  0  0
    3.9496    1.0081    1.9478 F   0  0  0  0  0  0  0  0  0  0  0  0
    4.7129   -1.2720    2.9312 F   0  0  0  0  0  0  0  0  0  0  0  0
    2.6153    0.9039    6.1175 F   0  0  0  0  0  0  0  0  0  0  0  0
    5.1208    0.2746    6.0729 F   0  0  0  0  0  0  0  0  0  0  0  0
    5.4572    3.4852    3.5813 F   0  0  0  0  0  0  0  0  0  0  0  0
    5.4217    3.8627    6.1288 F   0  0  0  0  0  0  0  0  0  0  0  0
    1.3259    4.1270    5.4281 F   0  0  0  0  0  0  0  0  0  0  0  0
    2.8514    6.2067    5.3429 F   0  0  0  0  0  0  0  0  0  0  0  0
    2.9968    4.2109    1.4235 F   0  0  0  0  0  0  0  0  0  0  0  0
    2.0963    6.6059    1.8959 F   0  0  0  0  0  0  0  0  0  0  0  0
   -1.3143    5.1261    2.8578 F   0  0  0  0  0  0  0  0  0  0  0  0
   -0.6706    4.2160    0.4840 F   0  0  0  0  0  0  0  0  0  0  0  0
   -1.0456    1.7298    4.1764 F   0  0  0  0  0  0  0  0  0  0  0  0
    1.4721    2.0020    3.6706 F   0  0  0  0  0  0  0  0  0  0  0  0
  1  3  1  0
  1  2  1  0
  2 24  1  0
  2  7  1  0
  2 25  1  0
  3 10  1  0
  3 11  1  0
  3  4  1  0
  4 12  1  0
  4  5  1  0
  4 13  1  0
  5 15  1  0
  5 14  1  0
  5  8  1  0
  6 20  1  0
  6  7  1  0
  6  9  1  0
  6 21  1  0
  7 22  1  0
  7 23  1  0
  8  9  1  0
  8 16  1  0
  8 17  1  0
  9 19  1  0
  9 18  1  0
M  END
>  <s_m_entry_id>  (22) 
2

>  <s_m_entry_name>  (22) 
S_SiF2_8_cyclic.1

>  <s_m_Source_Path>  (22) 
/uufs/chpc.utah.edu/common/home/u1319506/mmod_csearch_1

>  <s_m_Source_File>  (22) 
mmod_csearch_1-out.maegz

>  <i_m_Source_File_Index>  (22) 
1

>  <r_mmod_Potential_Energy-S-OPLS>  (22) 
-8.1481819152832

>  <b_mmod_Minimization_Converged-S-OPLS>  (22) 
1

>  <r_mmod_RMS_Derivative-S-OPLS>  (22) 
0.0383599475026131

>  <i_mmod_Times_Found-S-OPLS>  (22) 
2

>  <r_mmod_Relative_Potential_Energy-S-OPLS>  (22) 
0

>  <i_mmod_Conformation-S-OPLS>  (22) 
1

>  <s_m_job_name>  (22) 
mmod_csearch_1

>  <s_m_subgroup_title>  (22) 
mmod_csearch_1-out

>  <s_m_subgroupid>  (22) 
mmod_csearch_1-out

>  <b_m_subgroup_collapsed>  (22) 
0

$$$$
S_SiF2_8_cyclic
     RDKit          3D

 25 25  0  0  1  0  0  0  0  0999 V2000
    0.0382    0.3090    1.6882 S   0  0  0  0  0  0  0  0  0  0  0  0
   -0.4511    2.4000    1.8119 Si  0  0  0  0  0  4  0  0  0  0  0  0
    1.2232    0.2594    3.4820 Si  0  0  0  0  0  4  0  0  0  0  0  0
    3.5878   -0.2532    3.3337 Si  0  0  0  0  0  4  0  0  0  0  0  0
    4.5242    0.8074    5.2597 Si  0  0  0  0  0  4  0  0  0  0  0  0
    1.2978    5.2099    3.9381 Si  0  0  0  0  0  4  0  0  0  0  0  0
    1.4885    3.8551    1.9906 Si  0  0  0  0  0  4  0  0  0  0  0  0
    4.5191    3.2169    5.1483 Si  0  0  0  0  0  4  0  0  0  0  0  0
    2.4180    4.1787    5.8045 Si  0  0  0  0  0  4  0  0  0  0  0  0
    0.4868   -0.7066    4.5451 F   0  0  0  0  0  0  0  0  0  0  0  0
    1.1521    1.7380    4.1338 F   0  0  0  0  0  0  0  0  0  0  0  0
    4.2533    0.3401    1.9794 F   0  0  0  0  0  0  0  0  0  0  0  0
    3.8693   -1.8504    3.3413 F   0  0  0  0  0  0  0  0  0  0  0  0
    3.6856    0.3431    6.5649 F   0  0  0  0  0  0  0  0  0  0  0  0
    6.0345    0.2715    5.5009 F   0  0  0  0  0  0  0  0  0  0  0  0
    4.8899    3.7173    3.6543 F   0  0  0  0  0  0  0  0  0  0  0  0
    5.6979    3.8085    6.0890 F   0  0  0  0  0  0  0  0  0  0  0  0
    1.4905    3.0253    6.4627 F   0  0  0  0  0  0  0  0  0  0  0  0
    2.6477    5.2652    6.9841 F   0  0  0  0  0  0  0  0  0  0  0  0
    1.9407    6.6700    3.6548 F   0  0  0  0  0  0  0  0  0  0  0  0
   -0.2657    5.4689    4.2731 F   0  0  0  0  0  0  0  0  0  0  0  0
    1.7352    4.7421    0.6562 F   0  0  0  0  0  0  0  0  0  0  0  0
    2.7935    2.9072    2.1728 F   0  0  0  0  0  0  0  0  0  0  0  0
   -1.3477    2.7859    0.5240 F   0  0  0  0  0  0  0  0  0  0  0  0
   -1.3960    2.5817    3.1097 F   0  0  0  0  0  0  0  0  0  0  0  0
  1  3  1  0
  1  2  1  0
  2 24  1  0
  2  7  1  0
  2 25  1  0
  3 10  1  0
  3 11  1  0
  3  4  1  0
  4 12  1  0
  4  5  1  0
  4 13  1  0
  5 15  1  0
  5 14  1  0
  5  8  1  0
  6 20  1  0
  6  7  1  0
  6  9  1  0
  6 21  1  0
  7 22  1  0
  7 23  1  0
  8  9  1  0
  8 16  1  0
  8 17  1  0
  9 19  1  0
  9 18  1  0
M  END
>  <s_m_entry_id>  (23) 
2

>  <s_m_entry_name>  (23) 
S_SiF2_8_cyclic.1

>  <s_m_Source_Path>  (23) 
/uufs/chpc.utah.edu/common/home/u1319506/mmod_csearch_1

>  <s_m_Source_File>  (23) 
mmod_csearch_1-out.maegz

>  <i_m_Source_File_Index>  (23) 
1

>  <r_mmod_Potential_Energy-S-OPLS>  (23) 
-8.1481819152832

>  <b_mmod_Minimization_Converged-S-OPLS>  (23) 
1

>  <r_mmod_RMS_Derivative-S-OPLS>  (23) 
0.0383599475026131

>  <i_mmod_Times_Found-S-OPLS>  (23) 
2

>  <r_mmod_Relative_Potential_Energy-S-OPLS>  (23) 
0

>  <i_mmod_Conformation-S-OPLS>  (23) 
1

>  <s_m_job_name>  (23) 
mmod_csearch_1

>  <s_m_subgroup_title>  (23) 
mmod_csearch_1-out

>  <s_m_subgroupid>  (23) 
mmod_csearch_1-out

>  <b_m_subgroup_collapsed>  (23) 
0

$$$$
S_SiF2_8_cyclic
     RDKit          3D

 25 25  0  0  1  0  0  0  0  0999 V2000
    0.0382    0.3090    1.6882 S   0  0  0  0  0  0  0  0  0  0  0  0
    1.3864    0.6834    3.3091 Si  0  0  0  0  0  4  0  0  0  0  0  0
   -1.3982    1.7630    2.3269 Si  0  0  0  0  0  4  0  0  0  0  0  0
   -1.0787    4.0826    1.6339 Si  0  0  0  0  0  4  0  0  0  0  0  0
   -0.0014    5.2846    3.4009 Si  0  0  0  0  0  4  0  0  0  0  0  0
   -0.1974    0.9329    6.9059 Si  0  0  0  0  0  4  0  0  0  0  0  0
    1.0137   -0.4950    5.4151 Si  0  0  0  0  0  4  0  0  0  0  0  0
   -0.8901    4.6109    5.5188 Si  0  0  0  0  0  4  0  0  0  0  0  0
    0.6112    3.1791    6.7351 Si  0  0  0  0  0  4  0  0  0  0  0  0
   -1.3334    1.6799    3.9423 F   0  0  0  0  0  0  0  0  0  0  0  0
   -2.8636    1.2186    1.9216 F   0  0  0  0  0  0  0  0  0  0  0  0
   -2.5060    4.7777    1.3025 F   0  0  0  0  0  0  0  0  0  0  0  0
   -0.2073    4.1795    0.2695 F   0  0  0  0  0  0  0  0  0  0  0  0
    1.6003    5.0453    3.3706 F   0  0  0  0  0  0  0  0  0  0  0  0
   -0.2043    6.8794    3.1951 F   0  0  0  0  0  0  0  0  0  0  0  0
   -2.2982    3.8554    5.2575 F   0  0  0  0  0  0  0  0  0  0  0  0
   -1.2623    5.9126    6.4080 F   0  0  0  0  0  0  0  0  0  0  0  0
    2.0589    3.1397    6.0109 F   0  0  0  0  0  0  0  0  0  0  0  0
    0.8883    3.7867    8.2110 F   0  0  0  0  0  0  0  0  0  0  0  0
   -1.7849    0.8894    6.5868 F   0  0  0  0  0  0  0  0  0  0  0  0
   -0.0482    0.4028    8.4301 F   0  0  0  0  0  0  0  0  0  0  0  0
    2.4284   -0.9052    6.0938 F   0  0  0  0  0  0  0  0  0  0  0  0
    0.2099   -1.8843    5.1833 F   0  0  0  0  0  0  0  0  0  0  0  0
    2.8890    0.4596    2.7613 F   0  0  0  0  0  0  0  0  0  0  0  0
    1.2474    2.2763    3.5622 F   0  0  0  0  0  0  0  0  0  0  0  0
  1  3  1  0
  1  2  1  0
  2 24  1  0
  2  7  1  0
  2 25  1  0
  3 10  1  0
  3 11  1  0
  3  4  1  0
  4 12  1  0
  4  5  1  0
  4 13  1  0
  5 15  1  0
  5 14  1  0
  5  8  1  0
  6 20  1  0
  6  7  1  0
  6  9  1  0
  6 21  1  0
  7 22  1  0
  7 23  1  0
  8  9  1  0
  8 16  1  0
  8 17  1  0
  9 19  1  0
  9 18  1  0
M  END
>  <s_m_entry_id>  (24) 
2

>  <s_m_entry_name>  (24) 
S_SiF2_8_cyclic.1

>  <s_m_Source_Path>  (24) 
/uufs/chpc.utah.edu/common/home/u1319506/mmod_csearch_1

>  <s_m_Source_File>  (24) 
mmod_csearch_1-out.maegz

>  <i_m_Source_File_Index>  (24) 
1

>  <r_mmod_Potential_Energy-S-OPLS>  (24) 
-8.1481819152832

>  <b_mmod_Minimization_Converged-S-OPLS>  (24) 
1

>  <r_mmod_RMS_Derivative-S-OPLS>  (24) 
0.0383599475026131

>  <i_mmod_Times_Found-S-OPLS>  (24) 
2

>  <r_mmod_Relative_Potential_Energy-S-OPLS>  (24) 
0

>  <i_mmod_Conformation-S-OPLS>  (24) 
1

>  <s_m_job_name>  (24) 
mmod_csearch_1

>  <s_m_subgroup_title>  (24) 
mmod_csearch_1-out

>  <s_m_subgroupid>  (24) 
mmod_csearch_1-out

>  <b_m_subgroup_collapsed>  (24) 
0

$$$$
S_SiF2_8_cyclic
     RDKit          3D

 25 25  0  0  1  0  0  0  0  0999 V2000
    0.0382    0.3090    1.6882 S   0  0  0  0  0  0  0  0  0  0  0  0
    1.1085    0.0858    3.5293 Si  0  0  0  0  0  4  0  0  0  0  0  0
   -0.4767    2.3572    2.0419 Si  0  0  0  0  0  4  0  0  0  0  0  0
    1.1357    4.0783    1.4087 Si  0  0  0  0  0  4  0  0  0  0  0  0
    2.4008    4.7117    3.3391 Si  0  0  0  0  0  4  0  0  0  0  0  0
   -0.6290    1.4991    6.7683 Si  0  0  0  0  0  4  0  0  0  0  0  0
   -0.1560   -0.4970    5.5354 Si  0  0  0  0  0  4  0  0  0  0  0  0
    0.9755    4.8274    5.2585 Si  0  0  0  0  0  4  0  0  0  0  0  0
    1.2700    2.9556    6.7394 Si  0  0  0  0  0  4  0  0  0  0  0  0
   -0.7165    2.4199    3.6417 F   0  0  0  0  0  0  0  0  0  0  0  0
   -1.9228    2.6238    1.3744 F   0  0  0  0  0  0  0  0  0  0  0  0
    0.3724    5.3801    0.8147 F   0  0  0  0  0  0  0  0  0  0  0  0
    2.1221    3.5622    0.2294 F   0  0  0  0  0  0  0  0  0  0  0  0
    3.6085    3.6663    3.6078 F   0  0  0  0  0  0  0  0  0  0  0  0
    3.1164    6.1446    3.0913 F   0  0  0  0  0  0  0  0  0  0  0  0
   -0.5581    4.9004    4.7441 F   0  0  0  0  0  0  0  0  0  0  0  0
    1.2249    6.2147    6.0567 F   0  0  0  0  0  0  0  0  0  0  0  0
    2.5635    2.0882    6.2968 F   0  0  0  0  0  0  0  0  0  0  0  0
    1.5973    3.4764    8.2381 F   0  0  0  0  0  0  0  0  0  0  0  0
   -1.9221    2.2620    6.1603 F   0  0  0  0  0  0  0  0  0  0  0  0
   -1.0236    1.1304    8.2964 F   0  0  0  0  0  0  0  0  0  0  0  0
    0.6955   -1.5154    6.4669 F   0  0  0  0  0  0  0  0  0  0  0  0
   -1.5308   -1.2735    5.1653 F   0  0  0  0  0  0  0  0  0  0  0  0
    2.3220   -0.9480    3.2711 F   0  0  0  0  0  0  0  0  0  0  0  0
    1.8055    1.5310    3.7443 F   0  0  0  0  0  0  0  0  0  0  0  0
  1  3  1  0
  1  2  1  0
  2 24  1  0
  2  7  1  0
  2 25  1  0
  3 10  1  0
  3 11  1  0
  3  4  1  0
  4 12  1  0
  4  5  1  0
  4 13  1  0
  5 15  1  0
  5 14  1  0
  5  8  1  0
  6 20  1  0
  6  7  1  0
  6  9  1  0
  6 21  1  0
  7 22  1  0
  7 23  1  0
  8  9  1  0
  8 16  1  0
  8 17  1  0
  9 19  1  0
  9 18  1  0
M  END
>  <s_m_entry_id>  (25) 
2

>  <s_m_entry_name>  (25) 
S_SiF2_8_cyclic.1

>  <s_m_Source_Path>  (25) 
/uufs/chpc.utah.edu/common/home/u1319506/mmod_csearch_1

>  <s_m_Source_File>  (25) 
mmod_csearch_1-out.maegz

>  <i_m_Source_File_Index>  (25) 
1

>  <r_mmod_Potential_Energy-S-OPLS>  (25) 
-8.1481819152832

>  <b_mmod_Minimization_Converged-S-OPLS>  (25) 
1

>  <r_mmod_RMS_Derivative-S-OPLS>  (25) 
0.0383599475026131

>  <i_mmod_Times_Found-S-OPLS>  (25) 
2

>  <r_mmod_Relative_Potential_Energy-S-OPLS>  (25) 
0

>  <i_mmod_Conformation-S-OPLS>  (25) 
1

>  <s_m_job_name>  (25) 
mmod_csearch_1

>  <s_m_subgroup_title>  (25) 
mmod_csearch_1-out

>  <s_m_subgroupid>  (25) 
mmod_csearch_1-out

>  <b_m_subgroup_collapsed>  (25) 
0

$$$$
S_SiF2_8_cyclic
     RDKit          3D

 25 25  0  0  1  0  0  0  0  0999 V2000
    0.0382    0.3090    1.6882 S   0  0  0  0  0  0  0  0  0  0  0  0
   -0.8379    0.2463    3.6355 Si  0  0  0  0  0  4  0  0  0  0  0  0
    1.0400    2.1857    2.0152 Si  0  0  0  0  0  4  0  0  0  0  0  0
   -0.4002    4.1529    2.1834 Si  0  0  0  0  0  4  0  0  0  0  0  0
   -0.5689    4.8129    4.4702 Si  0  0  0  0  0  4  0  0  0  0  0  0
   -4.3690    1.0730    4.2785 Si  0  0  0  0  0  4  0  0  0  0  0  0
   -2.9809   -0.8334    3.9510 Si  0  0  0  0  0  4  0  0  0  0  0  0
   -2.8438    4.6262    5.2308 Si  0  0  0  0  0  4  0  0  0  0  0  0
   -3.4214    2.4239    6.0139 Si  0  0  0  0  0  4  0  0  0  0  0  0
    2.1102    2.3699    0.8181 F   0  0  0  0  0  0  0  0  0  0  0  0
    1.9068    2.0199    3.3681 F   0  0  0  0  0  0  0  0  0  0  0  0
   -1.8894    3.7930    1.6512 F   0  0  0  0  0  0  0  0  0  0  0  0
    0.1312    5.3795    1.2650 F   0  0  0  0  0  0  0  0  0  0  0  0
    0.3934    3.8875    5.3871 F   0  0  0  0  0  0  0  0  0  0  0  0
   -0.0287    6.3295    4.6563 F   0  0  0  0  0  0  0  0  0  0  0  0
   -3.8486    5.0457    4.0323 F   0  0  0  0  0  0  0  0  0  0  0  0
   -3.1111    5.7047    6.4103 F   0  0  0  0  0  0  0  0  0  0  0  0
   -2.0989    1.6690    6.5673 F   0  0  0  0  0  0  0  0  0  0  0  0
   -4.4344    2.5080    7.2752 F   0  0  0  0  0  0  0  0  0  0  0  0
   -4.4222    1.9391    2.9114 F   0  0  0  0  0  0  0  0  0  0  0  0
   -5.8938    0.6480    4.6253 F   0  0  0  0  0  0  0  0  0  0  0  0
   -3.0022   -1.7998    5.2533 F   0  0  0  0  0  0  0  0  0  0  0  0
   -3.4500   -1.7118    2.6708 F   0  0  0  0  0  0  0  0  0  0  0  0
    0.2697   -0.2772    4.6860 F   0  0  0  0  0  0  0  0  0  0  0  0
   -1.0972    1.8026    3.9974 F   0  0  0  0  0  0  0  0  0  0  0  0
  1  3  1  0
  1  2  1  0
  2 24  1  0
  2  7  1  0
  2 25  1  0
  3 10  1  0
  3 11  1  0
  3  4  1  0
  4 12  1  0
  4  5  1  0
  4 13  1  0
  5 15  1  0
  5 14  1  0
  5  8  1  0
  6 20  1  0
  6  7  1  0
  6  9  1  0
  6 21  1  0
  7 22  1  0
  7 23  1  0
  8  9  1  0
  8 16  1  0
  8 17  1  0
  9 19  1  0
  9 18  1  0
M  END
>  <s_m_entry_id>  (26) 
2

>  <s_m_entry_name>  (26) 
S_SiF2_8_cyclic.1

>  <s_m_Source_Path>  (26) 
/uufs/chpc.utah.edu/common/home/u1319506/mmod_csearch_1

>  <s_m_Source_File>  (26) 
mmod_csearch_1-out.maegz

>  <i_m_Source_File_Index>  (26) 
1

>  <r_mmod_Potential_Energy-S-OPLS>  (26) 
-8.1481819152832

>  <b_mmod_Minimization_Converged-S-OPLS>  (26) 
1

>  <r_mmod_RMS_Derivative-S-OPLS>  (26) 
0.0383599475026131

>  <i_mmod_Times_Found-S-OPLS>  (26) 
2

>  <r_mmod_Relative_Potential_Energy-S-OPLS>  (26) 
0

>  <i_mmod_Conformation-S-OPLS>  (26) 
1

>  <s_m_job_name>  (26) 
mmod_csearch_1

>  <s_m_subgroup_title>  (26) 
mmod_csearch_1-out

>  <s_m_subgroupid>  (26) 
mmod_csearch_1-out

>  <b_m_subgroup_collapsed>  (26) 
0

$$$$
S_SiF2_8_cyclic
     RDKit          3D

 25 25  0  0  1  0  0  0  0  0999 V2000
    0.0382    0.3090    1.6882 S   0  0  0  0  0  0  0  0  0  0  0  0
   -0.9005    0.3108    3.6008 Si  0  0  0  0  0  4  0  0  0  0  0  0
    1.2081    2.0731    2.0901 Si  0  0  0  0  0  4  0  0  0  0  0  0
    0.0202    4.2084    2.2131 Si  0  0  0  0  0  4  0  0  0  0  0  0
   -0.4484    4.7351    4.4986 Si  0  0  0  0  0  4  0  0  0  0  0  0
   -4.4597    0.8924    4.5856 Si  0  0  0  0  0  4  0  0  0  0  0  0
   -2.9808   -0.8754    3.9690 Si  0  0  0  0  0  4  0  0  0  0  0  0
   -2.7950    4.4820    4.9637 Si  0  0  0  0  0  4  0  0  0  0  0  0
   -3.3170    2.4029    6.0575 Si  0  0  0  0  0  4  0  0  0  0  0  0
    2.3475    2.1398    0.9456 F   0  0  0  0  0  0  0  0  0  0  0  0
    1.9975    1.8119    3.4746 F   0  0  0  0  0  0  0  0  0  0  0  0
   -1.3759    4.1253    1.3924 F   0  0  0  0  0  0  0  0  0  0  0  0
    0.8743    5.4028    1.5241 F   0  0  0  0  0  0  0  0  0  0  0  0
    0.4071    3.7618    5.4701 F   0  0  0  0  0  0  0  0  0  0  0  0
    0.0391    6.2420    4.8430 F   0  0  0  0  0  0  0  0  0  0  0  0
   -3.6246    4.5664    3.5763 F   0  0  0  0  0  0  0  0  0  0  0  0
   -3.3224    5.7243    5.8605 F   0  0  0  0  0  0  0  0  0  0  0  0
   -1.9501    1.6790    6.5393 F   0  0  0  0  0  0  0  0  0  0  0  0
   -4.1818    2.6566    7.4034 F   0  0  0  0  0  0  0  0  0  0  0  0
   -4.9350    1.6914    3.2597 F   0  0  0  0  0  0  0  0  0  0  0  0
   -5.8046    0.3110    5.2784 F   0  0  0  0  0  0  0  0  0  0  0  0
   -2.8549   -1.9684    5.1606 F   0  0  0  0  0  0  0  0  0  0  0  0
   -3.5046   -1.6541    2.6463 F   0  0  0  0  0  0  0  0  0  0  0  0
    0.2010   -0.0578    4.7202 F   0  0  0  0  0  0  0  0  0  0  0  0
   -1.2417    1.8770    3.8232 F   0  0  0  0  0  0  0  0  0  0  0  0
  1  3  1  0
  1  2  1  0
  2 24  1  0
  2  7  1  0
  2 25  1  0
  3 10  1  0
  3 11  1  0
  3  4  1  0
  4 12  1  0
  4  5  1  0
  4 13  1  0
  5 15  1  0
  5 14  1  0
  5  8  1  0
  6 20  1  0
  6  7  1  0
  6  9  1  0
  6 21  1  0
  7 22  1  0
  7 23  1  0
  8  9  1  0
  8 16  1  0
  8 17  1  0
  9 19  1  0
  9 18  1  0
M  END
>  <s_m_entry_id>  (27) 
2

>  <s_m_entry_name>  (27) 
S_SiF2_8_cyclic.1

>  <s_m_Source_Path>  (27) 
/uufs/chpc.utah.edu/common/home/u1319506/mmod_csearch_1

>  <s_m_Source_File>  (27) 
mmod_csearch_1-out.maegz

>  <i_m_Source_File_Index>  (27) 
1

>  <r_mmod_Potential_Energy-S-OPLS>  (27) 
-8.1481819152832

>  <b_mmod_Minimization_Converged-S-OPLS>  (27) 
1

>  <r_mmod_RMS_Derivative-S-OPLS>  (27) 
0.0383599475026131

>  <i_mmod_Times_Found-S-OPLS>  (27) 
2

>  <r_mmod_Relative_Potential_Energy-S-OPLS>  (27) 
0

>  <i_mmod_Conformation-S-OPLS>  (27) 
1

>  <s_m_job_name>  (27) 
mmod_csearch_1

>  <s_m_subgroup_title>  (27) 
mmod_csearch_1-out

>  <s_m_subgroupid>  (27) 
mmod_csearch_1-out

>  <b_m_subgroup_collapsed>  (27) 
0

$$$$
S_SiF2_8_cyclic
     RDKit          3D

 25 25  0  0  1  0  0  0  0  0999 V2000
    0.0382    0.3090    1.6882 S   0  0  0  0  0  0  0  0  0  0  0  0
   -0.6994    0.0682    3.6785 Si  0  0  0  0  0  4  0  0  0  0  0  0
    0.7142    2.3281    2.0029 Si  0  0  0  0  0  4  0  0  0  0  0  0
   -1.0353    4.0094    2.2944 Si  0  0  0  0  0  4  0  0  0  0  0  0
   -1.1842    4.5999    4.6015 Si  0  0  0  0  0  4  0  0  0  0  0  0
   -4.2775    0.2535    4.5321 Si  0  0  0  0  0  4  0  0  0  0  0  0
   -2.5992   -1.3750    4.0858 Si  0  0  0  0  0  4  0  0  0  0  0  0
   -3.3437    4.0067    5.4807 Si  0  0  0  0  0  4  0  0  0  0  0  0
   -3.4817    1.7273    6.2437 Si  0  0  0  0  0  4  0  0  0  0  0  0
    1.6647    2.7128    0.7536 F   0  0  0  0  0  0  0  0  0  0  0  0
    1.6732    2.2996    3.3022 F   0  0  0  0  0  0  0  0  0  0  0  0
   -2.4670    3.4006    1.8362 F   0  0  0  0  0  0  0  0  0  0  0  0
   -0.7802    5.3221    1.3766 F   0  0  0  0  0  0  0  0  0  0  0  0
   -0.0237    3.8461    5.4431 F   0  0  0  0  0  0  0  0  0  0  0  0
   -0.9073    6.1852    4.7924 F   0  0  0  0  0  0  0  0  0  0  0  0
   -4.4739    4.2588    4.3488 F   0  0  0  0  0  0  0  0  0  0  0  0
   -3.7266    5.0061    6.6975 F   0  0  0  0  0  0  0  0  0  0  0  0
   -2.0180    1.2092    6.7065 F   0  0  0  0  0  0  0  0  0  0  0  0
   -4.4192    1.6158    7.5600 F   0  0  0  0  0  0  0  0  0  0  0  0
   -4.5600    1.1145    3.1901 F   0  0  0  0  0  0  0  0  0  0  0  0
   -5.6821   -0.4371    4.9519 F   0  0  0  0  0  0  0  0  0  0  0  0
   -2.3761   -2.3470    5.3649 F   0  0  0  0  0  0  0  0  0  0  0  0
   -2.9809   -2.3055    2.8134 F   0  0  0  0  0  0  0  0  0  0  0  0
    0.5413   -0.2662    4.6547 F   0  0  0  0  0  0  0  0  0  0  0  0
   -1.2052    1.5500    4.0895 F   0  0  0  0  0  0  0  0  0  0  0  0
  1  3  1  0
  1  2  1  0
  2 24  1  0
  2  7  1  0
  2 25  1  0
  3 10  1  0
  3 11  1  0
  3  4  1  0
  4 12  1  0
  4  5  1  0
  4 13  1  0
  5 15  1  0
  5 14  1  0
  5  8  1  0
  6 20  1  0
  6  7  1  0
  6  9  1  0
  6 21  1  0
  7 22  1  0
  7 23  1  0
  8  9  1  0
  8 16  1  0
  8 17  1  0
  9 19  1  0
  9 18  1  0
M  END
>  <s_m_entry_id>  (28) 
2

>  <s_m_entry_name>  (28) 
S_SiF2_8_cyclic.1

>  <s_m_Source_Path>  (28) 
/uufs/chpc.utah.edu/common/home/u1319506/mmod_csearch_1

>  <s_m_Source_File>  (28) 
mmod_csearch_1-out.maegz

>  <i_m_Source_File_Index>  (28) 
1

>  <r_mmod_Potential_Energy-S-OPLS>  (28) 
-8.1481819152832

>  <b_mmod_Minimization_Converged-S-OPLS>  (28) 
1

>  <r_mmod_RMS_Derivative-S-OPLS>  (28) 
0.0383599475026131

>  <i_mmod_Times_Found-S-OPLS>  (28) 
2

>  <r_mmod_Relative_Potential_Energy-S-OPLS>  (28) 
0

>  <i_mmod_Conformation-S-OPLS>  (28) 
1

>  <s_m_job_name>  (28) 
mmod_csearch_1

>  <s_m_subgroup_title>  (28) 
mmod_csearch_1-out

>  <s_m_subgroupid>  (28) 
mmod_csearch_1-out

>  <b_m_subgroup_collapsed>  (28) 
0

$$$$
S_SiF2_8_cyclic
     RDKit          3D

 25 25  0  0  1  0  0  0  0  0999 V2000
    0.0382    0.3090    1.6882 S   0  0  0  0  0  0  0  0  0  0  0  0
   -0.4450    2.1550    2.6636 Si  0  0  0  0  0  4  0  0  0  0  0  0
    1.5027   -0.3505    3.1257 Si  0  0  0  0  0  4  0  0  0  0  0  0
    0.9041   -0.4991    5.4986 Si  0  0  0  0  0  4  0  0  0  0  0  0
    2.2246    1.0990    6.7202 Si  0  0  0  0  0  4  0  0  0  0  0  0
    0.1685    5.7589    3.7418 Si  0  0  0  0  0  4  0  0  0  0  0  0
    0.4111    4.2796    1.8664 Si  0  0  0  0  0  4  0  0  0  0  0  0
    2.4348    3.2672    5.6799 Si  0  0  0  0  0  4  0  0  0  0  0  0
    0.4776    4.6209    5.8452 Si  0  0  0  0  0  4  0  0  0  0  0  0
    2.7360    0.6788    2.9714 F   0  0  0  0  0  0  0  0  0  0  0  0
    2.0685   -1.7717    2.6053 F   0  0  0  0  0  0  0  0  0  0  0  0
    1.1512   -1.9939    6.0775 F   0  0  0  0  0  0  0  0  0  0  0  0
   -0.6747   -0.1974    5.7193 F   0  0  0  0  0  0  0  0  0  0  0  0
    1.6175    1.2894    8.2104 F   0  0  0  0  0  0  0  0  0  0  0  0
    3.7063    0.4811    6.9409 F   0  0  0  0  0  0  0  0  0  0  0  0
    2.7017    3.0939    4.0934 F   0  0  0  0  0  0  0  0  0  0  0  0
    3.7219    4.0686    6.2488 F   0  0  0  0  0  0  0  0  0  0  0  0
   -0.8050    3.6822    6.1573 F   0  0  0  0  0  0  0  0  0  0  0  0
    0.5917    5.6643    7.0789 F   0  0  0  0  0  0  0  0  0  0  0  0
    1.2238    6.9828    3.6235 F   0  0  0  0  0  0  0  0  0  0  0  0
   -1.3018    6.4387    3.7074 F   0  0  0  0  0  0  0  0  0  0  0  0
   -0.4061    4.8249    0.5759 F   0  0  0  0  0  0  0  0  0  0  0  0
    1.9675    4.1696    1.4260 F   0  0  0  0  0  0  0  0  0  0  0  0
   -2.0494    2.2234    2.8244 F   0  0  0  0  0  0  0  0  0  0  0  0
    0.0973    2.0053    4.1765 F   0  0  0  0  0  0  0  0  0  0  0  0
  1  3  1  0
  1  2  1  0
  2 24  1  0
  2  7  1  0
  2 25  1  0
  3 10  1  0
  3 11  1  0
  3  4  1  0
  4 12  1  0
  4  5  1  0
  4 13  1  0
  5 15  1  0
  5 14  1  0
  5  8  1  0
  6 20  1  0
  6  7  1  0
  6  9  1  0
  6 21  1  0
  7 22  1  0
  7 23  1  0
  8  9  1  0
  8 16  1  0
  8 17  1  0
  9 19  1  0
  9 18  1  0
M  END
>  <s_m_entry_id>  (29) 
2

>  <s_m_entry_name>  (29) 
S_SiF2_8_cyclic.1

>  <s_m_Source_Path>  (29) 
/uufs/chpc.utah.edu/common/home/u1319506/mmod_csearch_1

>  <s_m_Source_File>  (29) 
mmod_csearch_1-out.maegz

>  <i_m_Source_File_Index>  (29) 
1

>  <r_mmod_Potential_Energy-S-OPLS>  (29) 
-8.1481819152832

>  <b_mmod_Minimization_Converged-S-OPLS>  (29) 
1

>  <r_mmod_RMS_Derivative-S-OPLS>  (29) 
0.0383599475026131

>  <i_mmod_Times_Found-S-OPLS>  (29) 
2

>  <r_mmod_Relative_Potential_Energy-S-OPLS>  (29) 
0

>  <i_mmod_Conformation-S-OPLS>  (29) 
1

>  <s_m_job_name>  (29) 
mmod_csearch_1

>  <s_m_subgroup_title>  (29) 
mmod_csearch_1-out

>  <s_m_subgroupid>  (29) 
mmod_csearch_1-out

>  <b_m_subgroup_collapsed>  (29) 
0

$$$$
