
     RDKit          3D

 25 25  0  0  0  0  0  0  0  0999 V2000
    0.0382    0.3090    1.6882 S   0  0  0  0  0  2  0  0  0  0  0  0
    0.9976    2.0119    2.5692 Si  0  0  0  0  0  4  0  0  0  0  0  0
   -2.0315    0.3856    2.2123 Si  0  0  0  0  0  4  0  0  0  0  0  0
   -2.3149    0.9365    4.3648 Si  0  0  0  0  0  4  0  0  0  0  0  0
   -2.6861    3.1205    4.5864 Si  0  0  0  0  0  4  0  0  0  0  0  0
    0.1285    5.5579    2.9034 Si  0  0  0  0  0  4  0  0  0  0  0  0
    0.3953    3.8772    1.5005 Si  0  0  0  0  0  4  0  0  0  0  0  0
   -1.2928    4.0932    5.9850 Si  0  0  0  0  0  4  0  0  0  0  0  0
    0.4728    4.9994    5.0197 Si  0  0  0  0  0  4  0  0  0  0  0  0
   -2.7006   -1.1385    1.8859 F   0  0  0  0  0  0  0  0  0  0  0  0
   -2.8182    1.4929    1.2058 F   0  0  0  0  0  0  0  0  0  0  0  0
   -3.6590    0.0256    4.9017 F   0  0  0  0  0  0  0  0  0  0  0  0
   -1.0197    0.4159    5.3088 F   0  0  0  0  0  0  0  0  0  0  0  0
   -2.6107    3.9171    3.1006 F   0  0  0  0  0  0  0  0  0  0  0  0
   -4.2631    3.3183    5.1585 F   0  0  0  0  0  0  0  0  0  0  0  0
   -2.1294    5.2831    6.8428 F   0  0  0  0  0  0  0  0  0  0  0  0
   -0.7818    2.9475    7.1422 F   0  0  0  0  0  0  0  0  0  0  0  0
    0.8657    6.4205    5.8484 F   0  0  0  0  0  0  0  0  0  0  0  0
    1.8585    4.0121    5.1641 F   0  0  0  0  0  0  0  0  0  0  0  0
   -1.3771    6.2848    2.7709 F   0  0  0  0  0  0  0  0  0  0  0  0
    1.2850    6.7523    2.5108 F   0  0  0  0  0  0  0  0  0  0  0  0
    1.6166    4.1999    0.3514 F   0  0  0  0  0  0  0  0  0  0  0  0
   -1.0149    3.5974    0.5802 F   0  0  0  0  0  0  0  0  0  0  0  0
    2.6732    1.8698    2.5297 F   0  0  0  0  0  0  0  0  0  0  0  0
    0.4571    2.1403    4.1503 F   0  0  0  0  0  0  0  0  0  0  0  0
  1  2  1  0
  1  3  1  0
  2  7  1  0
  2 24  1  0
  2 25  1  0
  3  4  1  0
  3 10  1  0
  3 11  1  0
  4  5  1  0
  4 12  1  0
  4 13  1  0
  5  8  1  0
  5 14  1  0
  5 15  1  0
  6  7  1  0
  6  9  1  0
  6 20  1  0
  6 21  1  0
  7 22  1  0
  7 23  1  0
  8  9  1  0
  8 16  1  0
  8 17  1  0
  9 18  1  0
  9 19  1  0
M  CHG  1   1   1
M  RAD  1   1   2
M  END
$$$$

     RDKit          3D

 25 25  0  0  0  0  0  0  0  0999 V2000
    0.0382    0.3090    1.6882 S   0  0  0  0  0  2  0  0  0  0  0  0
    1.4565    1.2617    2.9230 Si  0  0  0  0  0  4  0  0  0  0  0  0
   -1.9380    0.2957    2.3848 Si  0  0  0  0  0  4  0  0  0  0  0  0
   -2.6328    2.2468    3.2008 Si  0  0  0  0  0  4  0  0  0  0  0  0
   -3.6845    1.9865    5.1252 Si  0  0  0  0  0  4  0  0  0  0  0  0
    0.4029    0.5142    6.4080 Si  0  0  0  0  0  4  0  0  0  0  0  0
    1.8699    0.2300    4.8127 Si  0  0  0  0  0  4  0  0  0  0  0  0
   -2.5541    2.6482    6.8862 Si  0  0  0  0  0  4  0  0  0  0  0  0
   -0.3427    2.5830    6.6203 Si  0  0  0  0  0  4  0  0  0  0  0  0
   -2.9366   -0.1911    1.0824 F   0  0  0  0  0  0  0  0  0  0  0  0
   -2.1976   -0.8909    3.5858 F   0  0  0  0  0  0  0  0  0  0  0  0
   -1.3816    3.3679    3.2972 F   0  0  0  0  0  0  0  0  0  0  0  0
   -3.7459    2.8963    2.0957 F   0  0  0  0  0  0  0  0  0  0  0  0
   -4.0356    0.3235    5.3002 F   0  0  0  0  0  0  0  0  0  0  0  0
   -5.1775    2.7750    5.1112 F   0  0  0  0  0  0  0  0  0  0  0  0
   -2.9741    4.2210    7.3339 F   0  0  0  0  0  0  0  0  0  0  0  0
   -2.9293    1.6547    8.2126 F   0  0  0  0  0  0  0  0  0  0  0  0
    0.0922    3.5893    5.3659 F   0  0  0  0  0  0  0  0  0  0  0  0
    0.3121    3.2969    8.0321 F   0  0  0  0  0  0  0  0  0  0  0  0
   -0.9068   -0.5765    6.2689 F   0  0  0  0  0  0  0  0  0  0  0  0
    1.1559    0.0567    7.8779 F   0  0  0  0  0  0  0  0  0  0  0  0
    3.3988    0.7370    5.3797 F   0  0  0  0  0  0  0  0  0  0  0  0
    2.0266   -1.4297    4.4965 F   0  0  0  0  0  0  0  0  0  0  0  0
    2.9321    1.2591    2.0422 F   0  0  0  0  0  0  0  0  0  0  0  0
    1.1154    2.9061    3.1424 F   0  0  0  0  0  0  0  0  0  0  0  0
  1  2  1  0
  1  3  1  0
  2  7  1  0
  2 24  1  0
  2 25  1  0
  3  4  1  0
  3 10  1  0
  3 11  1  0
  4  5  1  0
  4 12  1  0
  4 13  1  0
  5  8  1  0
  5 14  1  0
  5 15  1  0
  6  7  1  0
  6  9  1  0
  6 20  1  0
  6 21  1  0
  7 22  1  0
  7 23  1  0
  8  9  1  0
  8 16  1  0
  8 17  1  0
  9 18  1  0
  9 19  1  0
M  CHG  1   1   1
M  RAD  1   1   2
M  END
$$$$

     RDKit          3D

 25 25  0  0  0  0  0  0  0  0999 V2000
    0.0382    0.3090    1.6882 S   0  0  0  0  0  2  0  0  0  0  0  0
    1.2472    1.8834    1.0053 Si  0  0  0  0  0  4  0  0  0  0  0  0
   -1.2901    0.8132    3.2664 Si  0  0  0  0  0  4  0  0  0  0  0  0
   -0.2436    0.3566    5.2139 Si  0  0  0  0  0  4  0  0  0  0  0  0
    1.3446   -1.1041    4.8449 Si  0  0  0  0  0  4  0  0  0  0  0  0
    3.6163    3.2468    3.4780 Si  0  0  0  0  0  4  0  0  0  0  0  0
    1.6457    3.4552    2.5253 Si  0  0  0  0  0  4  0  0  0  0  0  0
    3.3417   -0.2864    4.4772 Si  0  0  0  0  0  4  0  0  0  0  0  0
    3.6795    1.7755    5.1400 Si  0  0  0  0  0  4  0  0  0  0  0  0
   -1.8115    2.3969    3.2177 F   0  0  0  0  0  0  0  0  0  0  0  0
   -2.6477   -0.1813    3.1253 F   0  0  0  0  0  0  0  0  0  0  0  0
   -1.4266   -0.3203    6.2487 F   0  0  0  0  0  0  0  0  0  0  0  0
    0.2521    1.7611    5.9513 F   0  0  0  0  0  0  0  0  0  0  0  0
    0.9018   -2.0612    3.4995 F   0  0  0  0  0  0  0  0  0  0  0  0
    1.3812   -2.2061    6.1522 F   0  0  0  0  0  0  0  0  0  0  0  0
    3.7088   -0.3515    2.8071 F   0  0  0  0  0  0  0  0  0  0  0  0
    4.4781   -1.3099    5.2141 F   0  0  0  0  0  0  0  0  0  0  0  0
    2.7041    2.2396    6.4348 F   0  0  0  0  0  0  0  0  0  0  0  0
    5.2672    1.8741    5.7446 F   0  0  0  0  0  0  0  0  0  0  0  0
    4.0868    4.7488    4.0940 F   0  0  0  0  0  0  0  0  0  0  0  0
    4.7455    2.7910    2.3238 F   0  0  0  0  0  0  0  0  0  0  0  0
    0.3837    3.6322    3.6139 F   0  0  0  0  0  0  0  0  0  0  0  0
    1.7019    4.9381    1.6663 F   0  0  0  0  0  0  0  0  0  0  0  0
    0.5017    2.5562   -0.3775 F   0  0  0  0  0  0  0  0  0  0  0  0
    2.7285    1.2679    0.4806 F   0  0  0  0  0  0  0  0  0  0  0  0
  1  2  1  0
  1  3  1  0
  2  7  1  0
  2 24  1  0
  2 25  1  0
  3  4  1  0
  3 10  1  0
  3 11  1  0
  4  5  1  0
  4 12  1  0
  4 13  1  0
  5  8  1  0
  5 14  1  0
  5 15  1  0
  6  7  1  0
  6  9  1  0
  6 20  1  0
  6 21  1  0
  7 22  1  0
  7 23  1  0
  8  9  1  0
  8 16  1  0
  8 17  1  0
  9 18  1  0
  9 19  1  0
M  CHG  1   1   1
M  RAD  1   1   2
M  END
$$$$

     RDKit          3D

 25 25  0  0  0  0  0  0  0  0999 V2000
    0.0382    0.3090    1.6882 S   0  0  0  0  0  2  0  0  0  0  0  0
   -1.2658   -0.2070    3.3030 Si  0  0  0  0  0  4  0  0  0  0  0  0
    2.0515   -0.2042    2.2954 Si  0  0  0  0  0  4  0  0  0  0  0  0
    3.1750    1.6367    2.8298 Si  0  0  0  0  0  4  0  0  0  0  0  0
    3.9062    1.6088    4.9080 Si  0  0  0  0  0  4  0  0  0  0  0  0
   -0.6052    3.0647    4.7830 Si  0  0  0  0  0  4  0  0  0  0  0  0
   -0.5510    0.8937    5.1378 Si  0  0  0  0  0  4  0  0  0  0  0  0
    2.7593    2.8437    6.2998 Si  0  0  0  0  0  4  0  0  0  0  0  0
    1.2286    4.1241    5.3807 Si  0  0  0  0  0  4  0  0  0  0  0  0
    2.0069   -1.3106    3.5757 F   0  0  0  0  0  0  0  0  0  0  0  0
    2.7532   -1.0132    0.9832 F   0  0  0  0  0  0  0  0  0  0  0  0
    4.4698    1.7776    1.7245 F   0  0  0  0  0  0  0  0  0  0  0  0
    2.1887    2.9778    2.5739 F   0  0  0  0  0  0  0  0  0  0  0  0
    3.9367   -0.0168    5.4332 F   0  0  0  0  0  0  0  0  0  0  0  0
    5.5432    2.0972    4.8921 F   0  0  0  0  0  0  0  0  0  0  0  0
    2.0096    1.8750    7.4843 F   0  0  0  0  0  0  0  0  0  0  0  0
    3.8172    3.8712    7.1641 F   0  0  0  0  0  0  0  0  0  0  0  0
    1.9163    5.0079    4.0925 F   0  0  0  0  0  0  0  0  0  0  0  0
    0.7976    5.3091    6.5359 F   0  0  0  0  0  0  0  0  0  0  0  0
   -1.9857    3.6963    5.5659 F   0  0  0  0  0  0  0  0  0  0  0  0
   -0.8640    3.3470    3.1194 F   0  0  0  0  0  0  0  0  0  0  0  0
   -1.6339    0.4566    6.3835 F   0  0  0  0  0  0  0  0  0  0  0  0
    0.9483    0.3106    5.5602 F   0  0  0  0  0  0  0  0  0  0  0  0
   -2.8468    0.2382    2.9312 F   0  0  0  0  0  0  0  0  0  0  0  0
   -1.2087   -1.8598    3.5278 F   0  0  0  0  0  0  0  0  0  0  0  0
  1  2  1  0
  1  3  1  0
  2  7  1  0
  2 24  1  0
  2 25  1  0
  3  4  1  0
  3 10  1  0
  3 11  1  0
  4  5  1  0
  4 12  1  0
  4 13  1  0
  5  8  1  0
  5 14  1  0
  5 15  1  0
  6  7  1  0
  6  9  1  0
  6 20  1  0
  6 21  1  0
  7 22  1  0
  7 23  1  0
  8  9  1  0
  8 16  1  0
  8 17  1  0
  9 18  1  0
  9 19  1  0
M  CHG  1   1   1
M  RAD  1   1   2
M  END
$$$$

     RDKit          3D

 25 25  0  0  0  0  0  0  0  0999 V2000
    0.0382    0.3090    1.6882 S   0  0  0  0  0  2  0  0  0  0  0  0
    1.7111    1.6033    1.8485 Si  0  0  0  0  0  4  0  0  0  0  0  0
   -1.7838    1.2251    2.3145 Si  0  0  0  0  0  4  0  0  0  0  0  0
   -1.4946    2.2383    4.2839 Si  0  0  0  0  0  4  0  0  0  0  0  0
   -2.3908    4.2392    4.3422 Si  0  0  0  0  0  4  0  0  0  0  0  0
    2.2147    5.1884    2.2673 Si  0  0  0  0  0  4  0  0  0  0  0  0
    1.2497    3.6121    1.0422 Si  0  0  0  0  0  4  0  0  0  0  0  0
   -1.0825    5.8830    3.7441 Si  0  0  0  0  0  4  0  0  0  0  0  0
    1.0522    5.5809    4.1549 Si  0  0  0  0  0  4  0  0  0  0  0  0
   -2.9572   -0.0029    2.4265 F   0  0  0  0  0  0  0  0  0  0  0  0
   -2.3619    2.3175    1.1532 F   0  0  0  0  0  0  0  0  0  0  0  0
   -2.2817    1.2766    5.4582 F   0  0  0  0  0  0  0  0  0  0  0  0
    0.1367    2.2262    4.7142 F   0  0  0  0  0  0  0  0  0  0  0  0
   -2.9722    4.5333    5.9189 F   0  0  0  0  0  0  0  0  0  0  0  0
   -3.7723    4.2417    3.3400 F   0  0  0  0  0  0  0  0  0  0  0  0
   -1.6379    7.3101    4.5013 F   0  0  0  0  0  0  0  0  0  0  0  0
   -1.2749    6.1602    2.0713 F   0  0  0  0  0  0  0  0  0  0  0  0
    1.6971    7.0288    4.7947 F   0  0  0  0  0  0  0  0  0  0  0  0
    1.3614    4.3867    5.2922 F   0  0  0  0  0  0  0  0  0  0  0  0
    3.7716    4.7034    2.6500 F   0  0  0  0  0  0  0  0  0  0  0  0
    2.3118    6.5938    1.3404 F   0  0  0  0  0  0  0  0  0  0  0  0
    1.8716    3.7133   -0.5365 F   0  0  0  0  0  0  0  0  0  0  0  0
   -0.3926    3.9264    0.9645 F   0  0  0  0  0  0  0  0  0  0  0  0
    2.9886    0.9146    0.9493 F   0  0  0  0  0  0  0  0  0  0  0  0
    2.2890    1.7062    3.4495 F   0  0  0  0  0  0  0  0  0  0  0  0
  1  2  1  0
  1  3  1  0
  2  7  1  0
  2 24  1  0
  2 25  1  0
  3  4  1  0
  3 10  1  0
  3 11  1  0
  4  5  1  0
  4 12  1  0
  4 13  1  0
  5  8  1  0
  5 14  1  0
  5 15  1  0
  6  7  1  0
  6  9  1  0
  6 20  1  0
  6 21  1  0
  7 22  1  0
  7 23  1  0
  8  9  1  0
  8 16  1  0
  8 17  1  0
  9 18  1  0
  9 19  1  0
M  CHG  1   1   1
M  RAD  1   1   2
M  END
$$$$

     RDKit          3D

 25 25  0  0  0  0  0  0  0  0999 V2000
    0.0382    0.3090    1.6882 S   0  0  0  0  0  2  0  0  0  0  0  0
    1.7367    0.9245    2.8426 Si  0  0  0  0  0  4  0  0  0  0  0  0
   -1.3424    1.9388    1.6433 Si  0  0  0  0  0  4  0  0  0  0  0  0
   -1.5496    2.8967    3.6574 Si  0  0  0  0  0  4  0  0  0  0  0  0
   -0.2198    4.6733    3.8358 Si  0  0  0  0  0  4  0  0  0  0  0  0
    3.7296    3.9956    3.0365 Si  0  0  0  0  0  4  0  0  0  0  0  0
    2.9413    2.4223    1.7070 Si  0  0  0  0  0  4  0  0  0  0  0  0
    1.1148    4.5779    5.5832 Si  0  0  0  0  0  4  0  0  0  0  0  0
    3.1141    3.7495    5.1507 Si  0  0  0  0  0  4  0  0  0  0  0  0
   -2.8332    1.3343    1.1058 F   0  0  0  0  0  0  0  0  0  0  0  0
   -0.8288    3.0696    0.4963 F   0  0  0  0  0  0  0  0  0  0  0  0
   -3.1951    3.3432    3.7895 F   0  0  0  0  0  0  0  0  0  0  0  0
   -1.2900    1.7851    4.8970 F   0  0  0  0  0  0  0  0  0  0  0  0
    0.7153    4.8909    2.4478 F   0  0  0  0  0  0  0  0  0  0  0  0
   -1.2033    6.0398    3.9720 F   0  0  0  0  0  0  0  0  0  0  0  0
    1.2832    6.1324    6.2212 F   0  0  0  0  0  0  0  0  0  0  0  0
    0.3653    3.6460    6.8007 F   0  0  0  0  0  0  0  0  0  0  0  0
    4.2504    4.5724    6.0954 F   0  0  0  0  0  0  0  0  0  0  0  0
    3.2476    2.1162    5.6305 F   0  0  0  0  0  0  0  0  0  0  0  0
    3.3241    5.5417    2.5286 F   0  0  0  0  0  0  0  0  0  0  0  0
    5.4348    3.9003    3.0017 F   0  0  0  0  0  0  0  0  0  0  0  0
    4.1961    1.5587    0.9353 F   0  0  0  0  0  0  0  0  0  0  0  0
    2.0117    3.0816    0.4362 F   0  0  0  0  0  0  0  0  0  0  0  0
    2.7180   -0.3804    3.2473 F   0  0  0  0  0  0  0  0  0  0  0  0
    1.1666    1.6805    4.2253 F   0  0  0  0  0  0  0  0  0  0  0  0
  1  2  1  0
  1  3  1  0
  2  7  1  0
  2 24  1  0
  2 25  1  0
  3  4  1  0
  3 10  1  0
  3 11  1  0
  4  5  1  0
  4 12  1  0
  4 13  1  0
  5  8  1  0
  5 14  1  0
  5 15  1  0
  6  7  1  0
  6  9  1  0
  6 20  1  0
  6 21  1  0
  7 22  1  0
  7 23  1  0
  8  9  1  0
  8 16  1  0
  8 17  1  0
  9 18  1  0
  9 19  1  0
M  CHG  1   1   1
M  RAD  1   1   2
M  END
$$$$

     RDKit          3D

 25 25  0  0  0  0  0  0  0  0999 V2000
    0.0382    0.3090    1.6882 S   0  0  0  0  0  2  0  0  0  0  0  0
   -1.2431   -0.6418    3.2008 Si  0  0  0  0  0  4  0  0  0  0  0  0
    1.2516    1.8518    2.6552 Si  0  0  0  0  0  4  0  0  0  0  0  0
    3.1000    1.1814    3.5469 Si  0  0  0  0  0  4  0  0  0  0  0  0
    3.3925    1.0204    5.7018 Si  0  0  0  0  0  4  0  0  0  0  0  0
   -0.6993   -0.9209    6.9631 Si  0  0  0  0  0  4  0  0  0  0  0  0
    0.0851   -0.6916    4.9492 Si  0  0  0  0  0  4  0  0  0  0  0  0
    1.8837    1.7391    7.0941 Si  0  0  0  0  0  4  0  0  0  0  0  0
    0.8465    0.1061    8.2915 Si  0  0  0  0  0  4  0  0  0  0  0  0
    1.6484    2.8088    1.2604 F   0  0  0  0  0  0  0  0  0  0  0  0
    0.3088    2.9378    3.5138 F   0  0  0  0  0  0  0  0  0  0  0  0
    4.4000    2.1181    2.9061 F   0  0  0  0  0  0  0  0  0  0  0  0
    3.4394   -0.3609    2.8504 F   0  0  0  0  0  0  0  0  0  0  0  0
    4.9176    1.7142    6.1184 F   0  0  0  0  0  0  0  0  0  0  0  0
    3.6888   -0.6193    6.1525 F   0  0  0  0  0  0  0  0  0  0  0  0
    2.6844    2.6052    8.3602 F   0  0  0  0  0  0  0  0  0  0  0  0
    0.8037    2.8803    6.5336 F   0  0  0  0  0  0  0  0  0  0  0  0
    1.9911   -0.9723    8.8107 F   0  0  0  0  0  0  0  0  0  0  0  0
    0.0177    0.8845    9.5263 F   0  0  0  0  0  0  0  0  0  0  0  0
   -0.7308   -2.5341    7.4796 F   0  0  0  0  0  0  0  0  0  0  0  0
   -2.1887   -0.2060    7.1486 F   0  0  0  0  0  0  0  0  0  0  0  0
    1.3902   -1.6654    4.5904 F   0  0  0  0  0  0  0  0  0  0  0  0
    0.4823    0.9724    4.9903 F   0  0  0  0  0  0  0  0  0  0  0  0
   -2.5497    0.4089    3.3982 F   0  0  0  0  0  0  0  0  0  0  0  0
   -1.7052   -2.1434    2.6509 F   0  0  0  0  0  0  0  0  0  0  0  0
  1  2  1  0
  1  3  1  0
  2  7  1  0
  2 24  1  0
  2 25  1  0
  3  4  1  0
  3 10  1  0
  3 11  1  0
  4  5  1  0
  4 12  1  0
  4 13  1  0
  5  8  1  0
  5 14  1  0
  5 15  1  0
  6  7  1  0
  6  9  1  0
  6 20  1  0
  6 21  1  0
  7 22  1  0
  7 23  1  0
  8  9  1  0
  8 16  1  0
  8 17  1  0
  9 18  1  0
  9 19  1  0
M  CHG  1   1   1
M  RAD  1   1   2
M  END
$$$$

     RDKit          3D

 25 25  0  0  0  0  0  0  0  0999 V2000
    0.0382    0.3090    1.6882 S   0  0  0  0  0  2  0  0  0  0  0  0
    1.4103    1.7931    2.3874 Si  0  0  0  0  0  4  0  0  0  0  0  0
   -1.9378    0.8938    2.3511 Si  0  0  0  0  0  4  0  0  0  0  0  0
   -2.5697   -0.3741    4.0627 Si  0  0  0  0  0  4  0  0  0  0  0  0
   -3.0047    0.8037    5.8732 Si  0  0  0  0  0  4  0  0  0  0  0  0
    1.6527   -0.0257    5.5439 Si  0  0  0  0  0  4  0  0  0  0  0  0
    1.1943    1.9224    4.6292 Si  0  0  0  0  0  4  0  0  0  0  0  0
   -1.4488    0.7354    7.4068 Si  0  0  0  0  0  4  0  0  0  0  0  0
    0.1780   -0.6936    7.0343 Si  0  0  0  0  0  4  0  0  0  0  0  0
   -1.9538    2.5400    2.7450 F   0  0  0  0  0  0  0  0  0  0  0  0
   -2.9628    0.7077    1.0155 F   0  0  0  0  0  0  0  0  0  0  0  0
   -3.9430   -1.2562    3.5586 F   0  0  0  0  0  0  0  0  0  0  0  0
   -1.3685   -1.5116    4.3786 F   0  0  0  0  0  0  0  0  0  0  0  0
   -3.3033    2.4160    5.3929 F   0  0  0  0  0  0  0  0  0  0  0  0
   -4.4905    0.2518    6.5106 F   0  0  0  0  0  0  0  0  0  0  0  0
   -0.7659    2.2792    7.6384 F   0  0  0  0  0  0  0  0  0  0  0  0
   -2.1429    0.3211    8.9131 F   0  0  0  0  0  0  0  0  0  0  0  0
   -0.4766   -2.2245    6.6585 F   0  0  0  0  0  0  0  0  0  0  0  0
    0.9982   -0.9267    8.5168 F   0  0  0  0  0  0  0  0  0  0  0  0
    3.2271    0.0539    6.2018 F   0  0  0  0  0  0  0  0  0  0  0  0
    1.7390   -1.2073    4.3149 F   0  0  0  0  0  0  0  0  0  0  0  0
    2.3192    3.1057    5.1290 F   0  0  0  0  0  0  0  0  0  0  0  0
   -0.3231    2.5018    4.9869 F   0  0  0  0  0  0  0  0  0  0  0  0
    2.9849    1.3617    1.9742 F   0  0  0  0  0  0  0  0  0  0  0  0
    1.0399    3.2481    1.6585 F   0  0  0  0  0  0  0  0  0  0  0  0
  1  2  1  0
  1  3  1  0
  2  7  1  0
  2 24  1  0
  2 25  1  0
  3  4  1  0
  3 10  1  0
  3 11  1  0
  4  5  1  0
  4 12  1  0
  4 13  1  0
  5  8  1  0
  5 14  1  0
  5 15  1  0
  6  7  1  0
  6  9  1  0
  6 20  1  0
  6 21  1  0
  7 22  1  0
  7 23  1  0
  8  9  1  0
  8 16  1  0
  8 17  1  0
  9 18  1  0
  9 19  1  0
M  CHG  1   1   1
M  RAD  1   1   2
M  END
$$$$

     RDKit          3D

 25 25  0  0  0  0  0  0  0  0999 V2000
    0.0382    0.3090    1.6882 S   0  0  0  0  0  2  0  0  0  0  0  0
    1.2838    2.0803    2.0687 Si  0  0  0  0  0  4  0  0  0  0  0  0
   -0.6851   -0.4732    3.5995 Si  0  0  0  0  0  4  0  0  0  0  0  0
   -2.4959    0.4204    4.3635 Si  0  0  0  0  0  4  0  0  0  0  0  0
   -2.5234    1.7906    6.0597 Si  0  0  0  0  0  4  0  0  0  0  0  0
    1.2041    4.4676    5.0390 Si  0  0  0  0  0  4  0  0  0  0  0  0
    0.2216    3.0268    3.7418 Si  0  0  0  0  0  4  0  0  0  0  0  0
   -0.7248    2.1705    7.2225 Si  0  0  0  0  0  4  0  0  0  0  0  0
    0.0996    4.2820    7.0276 Si  0  0  0  0  0  4  0  0  0  0  0  0
   -1.0569   -2.0988    3.1122 F   0  0  0  0  0  0  0  0  0  0  0  0
    0.5704   -0.7542    4.6720 F   0  0  0  0  0  0  0  0  0  0  0  0
   -3.6455   -0.8283    4.6746 F   0  0  0  0  0  0  0  0  0  0  0  0
   -3.2404    1.2189    3.0266 F   0  0  0  0  0  0  0  0  0  0  0  0
   -3.7998    1.3382    7.1307 F   0  0  0  0  0  0  0  0  0  0  0  0
   -3.0925    3.3460    5.5734 F   0  0  0  0  0  0  0  0  0  0  0  0
   -1.1494    2.1459    8.8997 F   0  0  0  0  0  0  0  0  0  0  0  0
    0.4845    1.0229    7.1624 F   0  0  0  0  0  0  0  0  0  0  0  0
   -1.1647    5.3489    7.1047 F   0  0  0  0  0  0  0  0  0  0  0  0
    1.2310    4.4590    8.2550 F   0  0  0  0  0  0  0  0  0  0  0  0
    0.9669    6.0705    4.5443 F   0  0  0  0  0  0  0  0  0  0  0  0
    2.8210    4.1390    5.2417 F   0  0  0  0  0  0  0  0  0  0  0  0
   -1.2942    3.4785    3.2141 F   0  0  0  0  0  0  0  0  0  0  0  0
    0.1900    1.6776    4.7939 F   0  0  0  0  0  0  0  0  0  0  0  0
    2.7955    1.4720    2.5103 F   0  0  0  0  0  0  0  0  0  0  0  0
    1.3439    3.0057    0.6864 F   0  0  0  0  0  0  0  0  0  0  0  0
  1  2  1  0
  1  3  1  0
  2  7  1  0
  2 24  1  0
  2 25  1  0
  3  4  1  0
  3 10  1  0
  3 11  1  0
  4  5  1  0
  4 12  1  0
  4 13  1  0
  5  8  1  0
  5 14  1  0
  5 15  1  0
  6  7  1  0
  6  9  1  0
  6 20  1  0
  6 21  1  0
  7 22  1  0
  7 23  1  0
  8  9  1  0
  8 16  1  0
  8 17  1  0
  9 18  1  0
  9 19  1  0
M  CHG  1   1   1
M  RAD  1   1   2
M  END
$$$$

     RDKit          3D

 25 25  0  0  0  0  0  0  0  0999 V2000
    0.0382    0.3090    1.6882 S   0  0  0  0  0  2  0  0  0  0  0  0
    0.2286   -1.1996    3.1336 Si  0  0  0  0  0  4  0  0  0  0  0  0
   -0.9054    2.0743    2.3635 Si  0  0  0  0  0  4  0  0  0  0  0  0
    0.5899    3.7288    2.4278 Si  0  0  0  0  0  4  0  0  0  0  0  0
    0.9168    4.4172    4.5317 Si  0  0  0  0  0  4  0  0  0  0  0  0
    2.7868    0.2416    5.3636 Si  0  0  0  0  0  4  0  0  0  0  0  0
    0.6827   -0.4598    5.1716 Si  0  0  0  0  0  4  0  0  0  0  0  0
    2.9634    3.8889    5.1864 Si  0  0  0  0  0  4  0  0  0  0  0  0
    2.9598    2.0983    6.5441 Si  0  0  0  0  0  4  0  0  0  0  0  0
   -1.6976    1.8897    3.8352 F   0  0  0  0  0  0  0  0  0  0  0  0
   -2.0995    2.5155    1.2251 F   0  0  0  0  0  0  0  0  0  0  0  0
    2.0736    3.2035    1.7871 F   0  0  0  0  0  0  0  0  0  0  0  0
    0.1013    5.0417    1.4746 F   0  0  0  0  0  0  0  0  0  0  0  0
    0.6770    6.0889    4.6472 F   0  0  0  0  0  0  0  0  0  0  0  0
   -0.1857    3.6796    5.5518 F   0  0  0  0  0  0  0  0  0  0  0  0
    3.6490    5.2076    5.9490 F   0  0  0  0  0  0  0  0  0  0  0  0
    3.9583    3.4859    3.8617 F   0  0  0  0  0  0  0  0  0  0  0  0
    4.4845    2.0932    7.3134 F   0  0  0  0  0  0  0  0  0  0  0  0
    1.8086    2.2385    7.7433 F   0  0  0  0  0  0  0  0  0  0  0  0
    3.3774    0.5389    3.8063 F   0  0  0  0  0  0  0  0  0  0  0  0
    3.7546   -0.9452    6.0789 F   0  0  0  0  0  0  0  0  0  0  0  0
   -0.4201    0.6920    5.6889 F   0  0  0  0  0  0  0  0  0  0  0  0
    0.5065   -1.7910    6.2296 F   0  0  0  0  0  0  0  0  0  0  0  0
    1.4969   -2.2444    2.6725 F   0  0  0  0  0  0  0  0  0  0  0  0
   -1.1744   -2.1437    3.2187 F   0  0  0  0  0  0  0  0  0  0  0  0
  1  2  1  0
  1  3  1  0
  2  7  1  0
  2 24  1  0
  2 25  1  0
  3  4  1  0
  3 10  1  0
  3 11  1  0
  4  5  1  0
  4 12  1  0
  4 13  1  0
  5  8  1  0
  5 14  1  0
  5 15  1  0
  6  7  1  0
  6  9  1  0
  6 20  1  0
  6 21  1  0
  7 22  1  0
  7 23  1  0
  8  9  1  0
  8 16  1  0
  8 17  1  0
  9 18  1  0
  9 19  1  0
M  CHG  1   1   1
M  RAD  1   1   2
M  END
$$$$

     RDKit          3D

 25 25  0  0  0  0  0  0  0  0999 V2000
    0.0382    0.3090    1.6882 S   0  0  0  0  0  2  0  0  0  0  0  0
    1.7277    1.3380    2.5010 Si  0  0  0  0  0  4  0  0  0  0  0  0
   -1.7163    1.4956    2.1353 Si  0  0  0  0  0  4  0  0  0  0  0  0
   -2.8623    0.5599    3.7929 Si  0  0  0  0  0  4  0  0  0  0  0  0
   -3.0820    1.8970    5.5303 Si  0  0  0  0  0  4  0  0  0  0  0  0
    1.1069   -0.3199    5.6941 Si  0  0  0  0  0  4  0  0  0  0  0  0
    1.3544    1.6307    4.7064 Si  0  0  0  0  0  4  0  0  0  0  0  0
   -1.7714    1.4315    7.2164 Si  0  0  0  0  0  4  0  0  0  0  0  0
   -0.6333   -0.4391    7.0357 Si  0  0  0  0  0  4  0  0  0  0  0  0
   -1.2637    3.0855    2.4993 F   0  0  0  0  0  0  0  0  0  0  0  0
   -2.6202    1.5671    0.7047 F   0  0  0  0  0  0  0  0  0  0  0  0
   -4.3868    0.1133    3.1645 F   0  0  0  0  0  0  0  0  0  0  0  0
   -2.1022   -0.8723    4.2484 F   0  0  0  0  0  0  0  0  0  0  0  0
   -2.8263    3.4998    4.9963 F   0  0  0  0  0  0  0  0  0  0  0  0
   -4.7179    1.8518    6.0203 F   0  0  0  0  0  0  0  0  0  0  0  0
   -0.6731    2.7046    7.4924 F   0  0  0  0  0  0  0  0  0  0  0  0
   -2.6958    1.3177    8.6498 F   0  0  0  0  0  0  0  0  0  0  0  0
   -1.6875   -1.7153    6.6189 F   0  0  0  0  0  0  0  0  0  0  0  0
   -0.0655   -0.8408    8.5980 F   0  0  0  0  0  0  0  0  0  0  0  0
    2.5616   -0.6909    6.5089 F   0  0  0  0  0  0  0  0  0  0  0  0
    0.9409   -1.5278    4.4994 F   0  0  0  0  0  0  0  0  0  0  0  0
    2.7361    2.4392    5.3003 F   0  0  0  0  0  0  0  0  0  0  0  0
    0.0611    2.6590    4.8972 F   0  0  0  0  0  0  0  0  0  0  0  0
    3.1258    0.4308    2.2585 F   0  0  0  0  0  0  0  0  0  0  0  0
    1.8903    2.8013    1.7149 F   0  0  0  0  0  0  0  0  0  0  0  0
  1  2  1  0
  1  3  1  0
  2  7  1  0
  2 24  1  0
  2 25  1  0
  3  4  1  0
  3 10  1  0
  3 11  1  0
  4  5  1  0
  4 12  1  0
  4 13  1  0
  5  8  1  0
  5 14  1  0
  5 15  1  0
  6  7  1  0
  6  9  1  0
  6 20  1  0
  6 21  1  0
  7 22  1  0
  7 23  1  0
  8  9  1  0
  8 16  1  0
  8 17  1  0
  9 18  1  0
  9 19  1  0
M  CHG  1   1   1
M  RAD  1   1   2
M  END
$$$$

     RDKit          3D

 25 25  0  0  0  0  0  0  0  0999 V2000
    0.0382    0.3090    1.6882 S   0  0  0  0  0  2  0  0  0  0  0  0
    1.7255    1.6349    2.1665 Si  0  0  0  0  0  4  0  0  0  0  0  0
   -1.0643   -0.1273    3.5273 Si  0  0  0  0  0  4  0  0  0  0  0  0
   -2.5770    1.3078    4.0870 Si  0  0  0  0  0  4  0  0  0  0  0  0
   -2.3410    2.6990    5.7495 Si  0  0  0  0  0  4  0  0  0  0  0  0
    2.1052    4.0694    5.0747 Si  0  0  0  0  0  4  0  0  0  0  0  0
    0.8537    2.9356    3.7064 Si  0  0  0  0  0  4  0  0  0  0  0  0
   -0.6287    2.5693    7.0846 Si  0  0  0  0  0  4  0  0  0  0  0  0
    0.8173    4.3201    6.9420 Si  0  0  0  0  0  4  0  0  0  0  0  0
   -1.8692   -1.5846    3.0302 F   0  0  0  0  0  0  0  0  0  0  0  0
   -0.0606   -0.7256    4.7273 F   0  0  0  0  0  0  0  0  0  0  0  0
   -4.0776    0.4822    4.2982 F   0  0  0  0  0  0  0  0  0  0  0  0
   -2.9135    2.2313    2.6682 F   0  0  0  0  0  0  0  0  0  0  0  0
   -3.7883    2.7053    6.6908 F   0  0  0  0  0  0  0  0  0  0  0  0
   -2.3585    4.3294    5.1828 F   0  0  0  0  0  0  0  0  0  0  0  0
   -1.1944    2.7526    8.7096 F   0  0  0  0  0  0  0  0  0  0  0  0
    0.1710    1.1076    7.1673 F   0  0  0  0  0  0  0  0  0  0  0  0
   -0.0609    5.7224    6.8720 F   0  0  0  0  0  0  0  0  0  0  0  0
    1.8292    4.2025    8.2762 F   0  0  0  0  0  0  0  0  0  0  0  0
    2.4175    5.6439    4.5329 F   0  0  0  0  0  0  0  0  0  0  0  0
    3.5176    3.2758    5.4475 F   0  0  0  0  0  0  0  0  0  0  0  0
   -0.3950    3.8006    3.0187 F   0  0  0  0  0  0  0  0  0  0  0  0
    0.3126    1.7099    4.7709 F   0  0  0  0  0  0  0  0  0  0  0  0
    2.9303    0.6182    2.7705 F   0  0  0  0  0  0  0  0  0  0  0  0
    2.1944    2.4333    0.7831 F   0  0  0  0  0  0  0  0  0  0  0  0
  1  2  1  0
  1  3  1  0
  2  7  1  0
  2 24  1  0
  2 25  1  0
  3  4  1  0
  3 10  1  0
  3 11  1  0
  4  5  1  0
  4 12  1  0
  4 13  1  0
  5  8  1  0
  5 14  1  0
  5 15  1  0
  6  7  1  0
  6  9  1  0
  6 20  1  0
  6 21  1  0
  7 22  1  0
  7 23  1  0
  8  9  1  0
  8 16  1  0
  8 17  1  0
  9 18  1  0
  9 19  1  0
M  CHG  1   1   1
M  RAD  1   1   2
M  END
$$$$

     RDKit          3D

 25 25  0  0  0  0  0  0  0  0999 V2000
    0.0382    0.3090    1.6882 S   0  0  0  0  0  2  0  0  0  0  0  0
    1.3247   -0.9930    2.8108 Si  0  0  0  0  0  4  0  0  0  0  0  0
   -1.6618    0.9009    2.8420 Si  0  0  0  0  0  4  0  0  0  0  0  0
   -1.6829    3.0871    3.2444 Si  0  0  0  0  0  4  0  0  0  0  0  0
    0.2151    4.0857    2.8074 Si  0  0  0  0  0  4  0  0  0  0  0  0
    1.9078    0.8484    5.9262 Si  0  0  0  0  0  4  0  0  0  0  0  0
    2.7385    0.3309    3.9474 Si  0  0  0  0  0  4  0  0  0  0  0  0
    1.6115    4.2623    4.4846 Si  0  0  0  0  0  4  0  0  0  0  0  0
    1.2466    2.9029    6.1703 Si  0  0  0  0  0  4  0  0  0  0  0  0
   -3.0446    0.4048    1.9927 F   0  0  0  0  0  0  0  0  0  0  0  0
   -1.6497    0.0248    4.2847 F   0  0  0  0  0  0  0  0  0  0  0  0
   -2.2297    3.3420    4.8267 F   0  0  0  0  0  0  0  0  0  0  0  0
   -2.9012    3.7512    2.2435 F   0  0  0  0  0  0  0  0  0  0  0  0
    1.0050    3.2946    1.5199 F   0  0  0  0  0  0  0  0  0  0  0  0
   -0.1322    5.6497    2.2077 F   0  0  0  0  0  0  0  0  0  0  0  0
    1.5701    5.8420    5.0961 F   0  0  0  0  0  0  0  0  0  0  0  0
    3.2181    4.0788    3.9410 F   0  0  0  0  0  0  0  0  0  0  0  0
    2.0242    3.5793    7.5306 F   0  0  0  0  0  0  0  0  0  0  0  0
   -0.4132    2.9493    6.5717 F   0  0  0  0  0  0  0  0  0  0  0  0
    0.6155   -0.2275    6.2349 F   0  0  0  0  0  0  0  0  0  0  0  0
    3.0816    0.4294    7.0955 F   0  0  0  0  0  0  0  0  0  0  0  0
    4.1967   -0.5400    4.0830 F   0  0  0  0  0  0  0  0  0  0  0  0
    3.0456    1.6536    2.9823 F   0  0  0  0  0  0  0  0  0  0  0  0
    2.2142   -1.9999    1.7967 F   0  0  0  0  0  0  0  0  0  0  0  0
    0.4427   -1.9606    3.8651 F   0  0  0  0  0  0  0  0  0  0  0  0
  1  2  1  0
  1  3  1  0
  2  7  1  0
  2 24  1  0
  2 25  1  0
  3  4  1  0
  3 10  1  0
  3 11  1  0
  4  5  1  0
  4 12  1  0
  4 13  1  0
  5  8  1  0
  5 14  1  0
  5 15  1  0
  6  7  1  0
  6  9  1  0
  6 20  1  0
  6 21  1  0
  7 22  1  0
  7 23  1  0
  8  9  1  0
  8 16  1  0
  8 17  1  0
  9 18  1  0
  9 19  1  0
M  CHG  1   1   1
M  RAD  1   1   2
M  END
$$$$

     RDKit          3D

 25 25  0  0  0  0  0  0  0  0999 V2000
    0.0382    0.3090    1.6882 S   0  0  0  0  0  2  0  0  0  0  0  0
    1.2824   -0.8527    2.9145 Si  0  0  0  0  0  4  0  0  0  0  0  0
   -1.5574    1.2647    2.6900 Si  0  0  0  0  0  4  0  0  0  0  0  0
   -1.2077    3.4681    2.6953 Si  0  0  0  0  0  4  0  0  0  0  0  0
   -0.9079    4.2157    4.7830 Si  0  0  0  0  0  4  0  0  0  0  0  0
    3.0330    1.7481    4.8549 Si  0  0  0  0  0  4  0  0  0  0  0  0
    1.6463    0.0078    4.9230 Si  0  0  0  0  0  4  0  0  0  0  0  0
    1.1816    4.8948    5.0458 Si  0  0  0  0  0  4  0  0  0  0  0  0
    2.4014    3.3911    6.1863 Si  0  0  0  0  0  4  0  0  0  0  0  0
   -1.8272    0.6705    4.2398 F   0  0  0  0  0  0  0  0  0  0  0  0
   -2.9925    0.9822    1.8085 F   0  0  0  0  0  0  0  0  0  0  0  0
    0.1706    3.8454    1.7757 F   0  0  0  0  0  0  0  0  0  0  0  0
   -2.4973    4.3009    1.9782 F   0  0  0  0  0  0  0  0  0  0  0  0
   -1.9822    5.4811    5.1143 F   0  0  0  0  0  0  0  0  0  0  0  0
   -1.2213    2.9905    5.8789 F   0  0  0  0  0  0  0  0  0  0  0  0
    1.1806    6.3707    5.8282 F   0  0  0  0  0  0  0  0  0  0  0  0
    1.9622    5.1084    3.5452 F   0  0  0  0  0  0  0  0  0  0  0  0
    3.8029    4.2208    6.7002 F   0  0  0  0  0  0  0  0  0  0  0  0
    1.6100    2.8724    7.5601 F   0  0  0  0  0  0  0  0  0  0  0  0
    3.0605    2.3262    3.2651 F   0  0  0  0  0  0  0  0  0  0  0  0
    4.6028    1.2845    5.2765 F   0  0  0  0  0  0  0  0  0  0  0  0
    0.2200    0.3637    5.7287 F   0  0  0  0  0  0  0  0  0  0  0  0
    2.4201   -1.2054    5.8459 F   0  0  0  0  0  0  0  0  0  0  0  0
    2.7977   -1.0286    2.1493 F   0  0  0  0  0  0  0  0  0  0  0  0
    0.6548   -2.4121    3.1178 F   0  0  0  0  0  0  0  0  0  0  0  0
  1  2  1  0
  1  3  1  0
  2  7  1  0
  2 24  1  0
  2 25  1  0
  3  4  1  0
  3 10  1  0
  3 11  1  0
  4  5  1  0
  4 12  1  0
  4 13  1  0
  5  8  1  0
  5 14  1  0
  5 15  1  0
  6  7  1  0
  6  9  1  0
  6 20  1  0
  6 21  1  0
  7 22  1  0
  7 23  1  0
  8  9  1  0
  8 16  1  0
  8 17  1  0
  9 18  1  0
  9 19  1  0
M  CHG  1   1   1
M  RAD  1   1   2
M  END
$$$$

     RDKit          3D

 25 25  0  0  0  0  0  0  0  0999 V2000
    0.0382    0.3090    1.6882 S   0  0  0  0  0  2  0  0  0  0  0  0
   -1.1192    0.4605    3.4436 Si  0  0  0  0  0  4  0  0  0  0  0  0
    2.1168    0.3985    1.9370 Si  0  0  0  0  0  4  0  0  0  0  0  0
    2.8893   -0.8315    3.6239 Si  0  0  0  0  0  4  0  0  0  0  0  0
    4.3407    0.2984    4.8462 Si  0  0  0  0  0  4  0  0  0  0  0  0
    0.6905    2.8657    5.6239 Si  0  0  0  0  0  4  0  0  0  0  0  0
   -1.0726    2.4287    4.4080 Si  0  0  0  0  0  4  0  0  0  0  0  0
    3.5897    0.9367    6.8071 Si  0  0  0  0  0  4  0  0  0  0  0  0
    1.3776    1.1914    6.8910 Si  0  0  0  0  0  4  0  0  0  0  0  0
    2.8308   -0.1016    0.4638 F   0  0  0  0  0  0  0  0  0  0  0  0
    2.6781    1.9963    2.1605 F   0  0  0  0  0  0  0  0  0  0  0  0
    1.6427   -1.4859    4.5457 F   0  0  0  0  0  0  0  0  0  0  0  0
    3.7102   -2.1586    2.9555 F   0  0  0  0  0  0  0  0  0  0  0  0
    4.7901    1.6881    3.9595 F   0  0  0  0  0  0  0  0  0  0  0  0
    5.7616   -0.5858    5.0710 F   0  0  0  0  0  0  0  0  0  0  0  0
    4.0306   -0.1512    8.0206 F   0  0  0  0  0  0  0  0  0  0  0  0
    4.2828    2.4304    7.2260 F   0  0  0  0  0  0  0  0  0  0  0  0
    0.6413   -0.2626    6.5460 F   0  0  0  0  0  0  0  0  0  0  0  0
    1.0132    1.5145    8.5325 F   0  0  0  0  0  0  0  0  0  0  0  0
    1.9837    3.4620    4.6771 F   0  0  0  0  0  0  0  0  0  0  0  0
    0.2915    4.1859    6.6411 F   0  0  0  0  0  0  0  0  0  0  0  0
   -2.4632    2.5815    5.3872 F   0  0  0  0  0  0  0  0  0  0  0  0
   -1.2245    3.6192    3.2086 F   0  0  0  0  0  0  0  0  0  0  0  0
   -2.7485    0.2001    2.9631 F   0  0  0  0  0  0  0  0  0  0  0  0
   -0.8076   -0.8018    4.5291 F   0  0  0  0  0  0  0  0  0  0  0  0
  1  2  1  0
  1  3  1  0
  2  7  1  0
  2 24  1  0
  2 25  1  0
  3  4  1  0
  3 10  1  0
  3 11  1  0
  4  5  1  0
  4 12  1  0
  4 13  1  0
  5  8  1  0
  5 14  1  0
  5 15  1  0
  6  7  1  0
  6  9  1  0
  6 20  1  0
  6 21  1  0
  7 22  1  0
  7 23  1  0
  8  9  1  0
  8 16  1  0
  8 17  1  0
  9 18  1  0
  9 19  1  0
M  CHG  1   1   1
M  RAD  1   1   2
M  END
$$$$

     RDKit          3D

 25 25  0  0  0  0  0  0  0  0999 V2000
    0.0382    0.3090    1.6882 S   0  0  0  0  0  2  0  0  0  0  0  0
    1.9211   -0.2944    2.5256 Si  0  0  0  0  0  4  0  0  0  0  0  0
   -1.5501    0.0655    3.0987 Si  0  0  0  0  0  4  0  0  0  0  0  0
   -2.4689    2.0071    3.6714 Si  0  0  0  0  0  4  0  0  0  0  0  0
   -1.2953    3.7534    3.0686 Si  0  0  0  0  0  4  0  0  0  0  0  0
    2.1036    1.5765    5.6726 Si  0  0  0  0  0  4  0  0  0  0  0  0
    2.7638    1.5081    3.5670 Si  0  0  0  0  0  4  0  0  0  0  0  0
    0.1193    4.5153    4.5561 Si  0  0  0  0  0  4  0  0  0  0  0  0
    0.6522    3.1162    6.1626 Si  0  0  0  0  0  4  0  0  0  0  0  0
   -2.6855   -0.9859    2.4023 F   0  0  0  0  0  0  0  0  0  0  0  0
   -0.9334   -0.7300    4.4537 F   0  0  0  0  0  0  0  0  0  0  0  0
   -2.8229    1.9721    5.3271 F   0  0  0  0  0  0  0  0  0  0  0  0
   -3.9921    2.0689    2.8950 F   0  0  0  0  0  0  0  0  0  0  0  0
   -0.4451    3.4138    1.6300 F   0  0  0  0  0  0  0  0  0  0  0  0
   -2.3822    5.0046    2.6449 F   0  0  0  0  0  0  0  0  0  0  0  0
   -0.5187    5.9028    5.2903 F   0  0  0  0  0  0  0  0  0  0  0  0
    1.5387    5.0753    3.7930 F   0  0  0  0  0  0  0  0  0  0  0  0
    1.2508    4.0524    7.4578 F   0  0  0  0  0  0  0  0  0  0  0  0
   -0.7758    2.4115    6.7814 F   0  0  0  0  0  0  0  0  0  0  0  0
    1.4804    0.0330    6.0629 F   0  0  0  0  0  0  0  0  0  0  0  0
    3.5055    1.7121    6.6405 F   0  0  0  0  0  0  0  0  0  0  0  0
    4.4580    1.3787    3.4405 F   0  0  0  0  0  0  0  0  0  0  0  0
    2.3061    2.8400    2.6772 F   0  0  0  0  0  0  0  0  0  0  0  0
    2.9960   -0.7858    1.3270 F   0  0  0  0  0  0  0  0  0  0  0  0
    1.7274   -1.5665    3.6073 F   0  0  0  0  0  0  0  0  0  0  0  0
  1  2  1  0
  1  3  1  0
  2  7  1  0
  2 24  1  0
  2 25  1  0
  3  4  1  0
  3 10  1  0
  3 11  1  0
  4  5  1  0
  4 12  1  0
  4 13  1  0
  5  8  1  0
  5 14  1  0
  5 15  1  0
  6  7  1  0
  6  9  1  0
  6 20  1  0
  6 21  1  0
  7 22  1  0
  7 23  1  0
  8  9  1  0
  8 16  1  0
  8 17  1  0
  9 18  1  0
  9 19  1  0
M  CHG  1   1   1
M  RAD  1   1   2
M  END
$$$$

     RDKit          3D

 25 25  0  0  0  0  0  0  0  0999 V2000
    0.0382    0.3090    1.6882 S   0  0  0  0  0  2  0  0  0  0  0  0
    1.8378   -0.1891    2.6447 Si  0  0  0  0  0  4  0  0  0  0  0  0
   -1.6409    0.4393    2.9635 Si  0  0  0  0  0  4  0  0  0  0  0  0
   -2.2999    2.5667    3.0964 Si  0  0  0  0  0  4  0  0  0  0  0  0
   -2.0441    3.3446    5.1788 Si  0  0  0  0  0  4  0  0  0  0  0  0
    2.5398    2.8966    4.5367 Si  0  0  0  0  0  4  0  0  0  0  0  0
    2.0885    0.7195    4.6493 Si  0  0  0  0  0  4  0  0  0  0  0  0
   -0.4535    4.8824    5.2170 Si  0  0  0  0  0  4  0  0  0  0  0  0
    1.4618    4.0686    6.0650 Si  0  0  0  0  0  4  0  0  0  0  0  0
   -1.3814   -0.2311    4.4835 F   0  0  0  0  0  0  0  0  0  0  0  0
   -2.9215   -0.4439    2.2590 F   0  0  0  0  0  0  0  0  0  0  0  0
   -1.3867    3.5308    2.0360 F   0  0  0  0  0  0  0  0  0  0  0  0
   -3.9171    2.7441    2.6230 F   0  0  0  0  0  0  0  0  0  0  0  0
   -3.5007    3.9929    5.7472 F   0  0  0  0  0  0  0  0  0  0  0  0
   -1.6149    2.0956    6.2063 F   0  0  0  0  0  0  0  0  0  0  0  0
   -0.9839    6.1931    6.1066 F   0  0  0  0  0  0  0  0  0  0  0  0
   -0.0862    5.4400    3.6483 F   0  0  0  0  0  0  0  0  0  0  0  0
    2.4157    5.4307    6.4538 F   0  0  0  0  0  0  0  0  0  0  0  0
    1.1997    3.2347    7.4858 F   0  0  0  0  0  0  0  0  0  0  0  0
    2.0667    3.4449    3.0077 F   0  0  0  0  0  0  0  0  0  0  0  0
    4.1974    3.1781    4.7102 F   0  0  0  0  0  0  0  0  0  0  0  0
    0.7930    0.3913    5.6613 F   0  0  0  0  0  0  0  0  0  0  0  0
    3.4481   -0.0311    5.3639 F   0  0  0  0  0  0  0  0  0  0  0  0
    3.1391    0.3396    1.6752 F   0  0  0  0  0  0  0  0  0  0  0  0
    1.9994   -1.8669    2.8053 F   0  0  0  0  0  0  0  0  0  0  0  0
  1  2  1  0
  1  3  1  0
  2  7  1  0
  2 24  1  0
  2 25  1  0
  3  4  1  0
  3 10  1  0
  3 11  1  0
  4  5  1  0
  4 12  1  0
  4 13  1  0
  5  8  1  0
  5 14  1  0
  5 15  1  0
  6  7  1  0
  6  9  1  0
  6 20  1  0
  6 21  1  0
  7 22  1  0
  7 23  1  0
  8  9  1  0
  8 16  1  0
  8 17  1  0
  9 18  1  0
  9 19  1  0
M  CHG  1   1   1
M  RAD  1   1   2
M  END
$$$$

     RDKit          3D

 25 25  0  0  0  0  0  0  0  0999 V2000
    0.0382    0.3090    1.6882 S   0  0  0  0  0  2  0  0  0  0  0  0
    1.6179    0.0935    3.1215 Si  0  0  0  0  0  4  0  0  0  0  0  0
   -0.2860    2.3991    1.3875 Si  0  0  0  0  0  4  0  0  0  0  0  0
   -0.2696    3.5211    3.3260 Si  0  0  0  0  0  4  0  0  0  0  0  0
    1.7396    4.3933    3.7252 Si  0  0  0  0  0  4  0  0  0  0  0  0
    4.8495    1.7442    3.6445 Si  0  0  0  0  0  4  0  0  0  0  0  0
    3.5738    0.6620    2.2073 Si  0  0  0  0  0  4  0  0  0  0  0  0
    2.5587    3.8085    5.6825 Si  0  0  0  0  0  4  0  0  0  0  0  0
    3.8882    2.0482    5.6176 Si  0  0  0  0  0  4  0  0  0  0  0  0
   -1.7765    2.5793    0.5982 F   0  0  0  0  0  0  0  0  0  0  0  0
    0.8990    2.9997    0.3420 F   0  0  0  0  0  0  0  0  0  0  0  0
   -1.4512    4.7463    3.1609 F   0  0  0  0  0  0  0  0  0  0  0  0
   -0.8049    2.5564    4.5998 F   0  0  0  0  0  0  0  0  0  0  0  0
    2.8483    3.9743    2.5238 F   0  0  0  0  0  0  0  0  0  0  0  0
    1.5889    6.0750    3.6752 F   0  0  0  0  0  0  0  0  0  0  0  0
    3.4037    5.1197    6.3293 F   0  0  0  0  0  0  0  0  0  0  0  0
    1.2658    3.5044    6.7541 F   0  0  0  0  0  0  0  0  0  0  0  0
    5.1303    2.2736    6.7432 F   0  0  0  0  0  0  0  0  0  0  0  0
    3.0917    0.6255    6.1249 F   0  0  0  0  0  0  0  0  0  0  0  0
    5.3755    3.2263    3.0619 F   0  0  0  0  0  0  0  0  0  0  0  0
    6.2473    0.7998    3.9137 F   0  0  0  0  0  0  0  0  0  0  0  0
    4.3063   -0.7863    1.6766 F   0  0  0  0  0  0  0  0  0  0  0  0
    3.3154    1.5730    0.7870 F   0  0  0  0  0  0  0  0  0  0  0  0
    1.7178   -1.4817    3.7030 F   0  0  0  0  0  0  0  0  0  0  0  0
    1.3180    1.1637    4.3756 F   0  0  0  0  0  0  0  0  0  0  0  0
  1  2  1  0
  1  3  1  0
  2  7  1  0
  2 24  1  0
  2 25  1  0
  3  4  1  0
  3 10  1  0
  3 11  1  0
  4  5  1  0
  4 12  1  0
  4 13  1  0
  5  8  1  0
  5 14  1  0
  5 15  1  0
  6  7  1  0
  6  9  1  0
  6 20  1  0
  6 21  1  0
  7 22  1  0
  7 23  1  0
  8  9  1  0
  8 16  1  0
  8 17  1  0
  9 18  1  0
  9 19  1  0
M  CHG  1   1   1
M  RAD  1   1   2
M  END
$$$$

     RDKit          3D

 25 25  0  0  0  0  0  0  0  0999 V2000
    0.0382    0.3090    1.6882 S   0  0  0  0  0  2  0  0  0  0  0  0
    1.9405    0.3448    2.4880 Si  0  0  0  0  0  4  0  0  0  0  0  0
   -1.6832    0.1199    2.7852 Si  0  0  0  0  0  4  0  0  0  0  0  0
   -2.1397    1.3680    4.5072 Si  0  0  0  0  0  4  0  0  0  0  0  0
   -2.9763    3.4164    4.0292 Si  0  0  0  0  0  4  0  0  0  0  0  0
    2.1560    4.0224    2.0294 Si  0  0  0  0  0  4  0  0  0  0  0  0
    3.2272    2.0405    1.6703 Si  0  0  0  0  0  4  0  0  0  0  0  0
   -1.2506    4.8244    3.5237 Si  0  0  0  0  0  4  0  0  0  0  0  0
    0.1106    3.4859    2.4736 Si  0  0  0  0  0  4  0  0  0  0  0  0
   -1.8312   -1.5185    3.2872 F   0  0  0  0  0  0  0  0  0  0  0  0
   -3.0038    0.3006    1.6964 F   0  0  0  0  0  0  0  0  0  0  0  0
   -0.9581    1.4505    5.6864 F   0  0  0  0  0  0  0  0  0  0  0  0
   -3.4659    0.6239    5.3179 F   0  0  0  0  0  0  0  0  0  0  0  0
   -4.0166    3.2859    2.7423 F   0  0  0  0  0  0  0  0  0  0  0  0
   -3.6778    4.0094    5.4187 F   0  0  0  0  0  0  0  0  0  0  0  0
   -0.5779    5.3236    4.9828 F   0  0  0  0  0  0  0  0  0  0  0  0
   -1.8165    6.1050    2.6102 F   0  0  0  0  0  0  0  0  0  0  0  0
    0.3112    2.2340    3.6482 F   0  0  0  0  0  0  0  0  0  0  0  0
   -0.6944    2.9187    1.1100 F   0  0  0  0  0  0  0  0  0  0  0  0
    2.2412    4.8671    0.5659 F   0  0  0  0  0  0  0  0  0  0  0  0
    2.9332    4.8980    3.2093 F   0  0  0  0  0  0  0  0  0  0  0  0
    4.6378    2.0706    2.5942 F   0  0  0  0  0  0  0  0  0  0  0  0
    3.5024    1.8003    0.0544 F   0  0  0  0  0  0  0  0  0  0  0  0
    1.9963    0.4004    4.1937 F   0  0  0  0  0  0  0  0  0  0  0  0
    2.7714   -1.0673    2.0503 F   0  0  0  0  0  0  0  0  0  0  0  0
  1  2  1  0
  1  3  1  0
  2  7  1  0
  2 24  1  0
  2 25  1  0
  3  4  1  0
  3 10  1  0
  3 11  1  0
  4  5  1  0
  4 12  1  0
  4 13  1  0
  5  8  1  0
  5 14  1  0
  5 15  1  0
  6  7  1  0
  6  9  1  0
  6 20  1  0
  6 21  1  0
  7 22  1  0
  7 23  1  0
  8  9  1  0
  8 16  1  0
  8 17  1  0
  9 18  1  0
  9 19  1  0
M  CHG  1   1   1
M  RAD  1   1   2
M  END
$$$$

     RDKit          3D

 25 25  0  0  0  0  0  0  0  0999 V2000
    0.0382    0.3090    1.6882 S   0  0  0  0  0  2  0  0  0  0  0  0
    2.0683   -0.1308    1.7481 Si  0  0  0  0  0  4  0  0  0  0  0  0
   -1.2179   -0.5936    3.0872 Si  0  0  0  0  0  4  0  0  0  0  0  0
   -1.3656    0.4928    5.0124 Si  0  0  0  0  0  4  0  0  0  0  0  0
    0.4608    1.6661    5.4801 Si  0  0  0  0  0  4  0  0  0  0  0  0
    4.4752   -1.0948    4.3689 Si  0  0  0  0  0  4  0  0  0  0  0  0
    2.6957   -1.7158    3.1284 Si  0  0  0  0  0  4  0  0  0  0  0  0
    2.0156    0.4667    6.4880 Si  0  0  0  0  0  4  0  0  0  0  0  0
    3.9602    0.7865    5.4246 Si  0  0  0  0  0  4  0  0  0  0  0  0
   -0.8735   -2.2416    3.3500 F   0  0  0  0  0  0  0  0  0  0  0  0
   -2.7945   -0.6079    2.4157 F   0  0  0  0  0  0  0  0  0  0  0  0
   -1.7422   -0.5726    6.2858 F   0  0  0  0  0  0  0  0  0  0  0  0
   -2.6540    1.6055    4.9379 F   0  0  0  0  0  0  0  0  0  0  0  0
   -0.0123    2.9051    6.5561 F   0  0  0  0  0  0  0  0  0  0  0  0
    1.0063    2.4227    4.0872 F   0  0  0  0  0  0  0  0  0  0  0  0
    1.6140   -1.1722    6.5505 F   0  0  0  0  0  0  0  0  0  0  0  0
    2.2461    0.9596    8.1060 F   0  0  0  0  0  0  0  0  0  0  0  0
    5.2012    1.1455    6.5188 F   0  0  0  0  0  0  0  0  0  0  0  0
    3.8630    2.0831    4.3516 F   0  0  0  0  0  0  0  0  0  0  0  0
    4.6876   -2.2989    5.5335 F   0  0  0  0  0  0  0  0  0  0  0  0
    5.8418   -0.9394    3.4131 F   0  0  0  0  0  0  0  0  0  0  0  0
    1.5248   -2.1887    4.2137 F   0  0  0  0  0  0  0  0  0  0  0  0
    3.1924   -3.1106    2.2800 F   0  0  0  0  0  0  0  0  0  0  0  0
    2.9332    1.3061    2.0773 F   0  0  0  0  0  0  0  0  0  0  0  0
    2.5637   -0.5724    0.1706 F   0  0  0  0  0  0  0  0  0  0  0  0
  1  2  1  0
  1  3  1  0
  2  7  1  0
  2 24  1  0
  2 25  1  0
  3  4  1  0
  3 10  1  0
  3 11  1  0
  4  5  1  0
  4 12  1  0
  4 13  1  0
  5  8  1  0
  5 14  1  0
  5 15  1  0
  6  7  1  0
  6  9  1  0
  6 20  1  0
  6 21  1  0
  7 22  1  0
  7 23  1  0
  8  9  1  0
  8 16  1  0
  8 17  1  0
  9 18  1  0
  9 19  1  0
M  CHG  1   1   1
M  RAD  1   1   2
M  END
$$$$

     RDKit          3D

 25 25  0  0  0  0  0  0  0  0999 V2000
    0.0382    0.3090    1.6882 S   0  0  0  0  0  2  0  0  0  0  0  0
    1.9451   -0.2600    2.4226 Si  0  0  0  0  0  4  0  0  0  0  0  0
   -0.2931    2.4145    1.7803 Si  0  0  0  0  0  4  0  0  0  0  0  0
    0.2686    3.1909    3.7979 Si  0  0  0  0  0  4  0  0  0  0  0  0
    1.4384    5.0432    3.6926 Si  0  0  0  0  0  4  0  0  0  0  0  0
    5.0752    1.4483    3.1751 Si  0  0  0  0  0  4  0  0  0  0  0  0
    3.5353    1.0585    1.6280 Si  0  0  0  0  0  4  0  0  0  0  0  0
    3.6070    4.7929    3.6143 Si  0  0  0  0  0  4  0  0  0  0  0  0
    4.3843    3.0138    4.6380 Si  0  0  0  0  0  4  0  0  0  0  0  0
   -1.9432    2.6832    1.4607 F   0  0  0  0  0  0  0  0  0  0  0  0
    0.5568    3.2316    0.5613 F   0  0  0  0  0  0  0  0  0  0  0  0
   -1.1895    3.5375    4.6208 F   0  0  0  0  0  0  0  0  0  0  0  0
    1.0178    1.9803    4.7030 F   0  0  0  0  0  0  0  0  0  0  0  0
    1.0369    6.0215    5.0312 F   0  0  0  0  0  0  0  0  0  0  0  0
    0.9352    5.9225    2.3191 F   0  0  0  0  0  0  0  0  0  0  0  0
    4.3306    6.2060    4.2452 F   0  0  0  0  0  0  0  0  0  0  0  0
    4.0964    4.7309    1.9806 F   0  0  0  0  0  0  0  0  0  0  0  0
    5.7773    3.4566    5.5238 F   0  0  0  0  0  0  0  0  0  0  0  0
    3.3150    2.3483    5.7466 F   0  0  0  0  0  0  0  0  0  0  0  0
    5.4058    0.0204    3.9859 F   0  0  0  0  0  0  0  0  0  0  0  0
    6.4854    1.9558    2.4021 F   0  0  0  0  0  0  0  0  0  0  0  0
    4.2845    0.2697    0.3219 F   0  0  0  0  0  0  0  0  0  0  0  0
    2.9535    2.5261    1.0717 F   0  0  0  0  0  0  0  0  0  0  0  0
    2.2384   -1.8644    1.9179 F   0  0  0  0  0  0  0  0  0  0  0  0
    1.9863   -0.3071    4.1266 F   0  0  0  0  0  0  0  0  0  0  0  0
  1  2  1  0
  1  3  1  0
  2  7  1  0
  2 24  1  0
  2 25  1  0
  3  4  1  0
  3 10  1  0
  3 11  1  0
  4  5  1  0
  4 12  1  0
  4 13  1  0
  5  8  1  0
  5 14  1  0
  5 15  1  0
  6  7  1  0
  6  9  1  0
  6 20  1  0
  6 21  1  0
  7 22  1  0
  7 23  1  0
  8  9  1  0
  8 16  1  0
  8 17  1  0
  9 18  1  0
  9 19  1  0
M  CHG  1   1   1
M  RAD  1   1   2
M  END
$$$$

     RDKit          3D

 25 25  0  0  0  0  0  0  0  0999 V2000
    0.0382    0.3090    1.6882 S   0  0  0  0  0  2  0  0  0  0  0  0
    1.1839   -0.4415    3.3376 Si  0  0  0  0  0  4  0  0  0  0  0  0
    0.6711    2.3153    1.3165 Si  0  0  0  0  0  4  0  0  0  0  0  0
    0.9182    3.4660    3.2222 Si  0  0  0  0  0  4  0  0  0  0  0  0
    3.0400    3.4457    3.8964 Si  0  0  0  0  0  4  0  0  0  0  0  0
    4.7166   -0.2585    4.3009 Si  0  0  0  0  0  4  0  0  0  0  0  0
    3.2940   -0.8105    2.7085 Si  0  0  0  0  0  4  0  0  0  0  0  0
    3.2812    2.7168    5.9589 Si  0  0  0  0  0  4  0  0  0  0  0  0
    3.7356    0.5625    6.1100 Si  0  0  0  0  0  4  0  0  0  0  0  0
   -0.4903    3.0435    0.3176 F   0  0  0  0  0  0  0  0  0  0  0  0
    2.1199    2.2878    0.4456 F   0  0  0  0  0  0  0  0  0  0  0  0
    0.3985    5.0572    2.8719 F   0  0  0  0  0  0  0  0  0  0  0  0
   -0.1308    2.9091    4.4176 F   0  0  0  0  0  0  0  0  0  0  0  0
    4.0076    2.5154    2.8735 F   0  0  0  0  0  0  0  0  0  0  0  0
    3.6240    5.0279    3.8031 F   0  0  0  0  0  0  0  0  0  0  0  0
    4.5137    3.5985    6.7040 F   0  0  0  0  0  0  0  0  0  0  0  0
    1.8580    3.0598    6.8362 F   0  0  0  0  0  0  0  0  0  0  0  0
    4.8040    0.3298    7.4004 F   0  0  0  0  0  0  0  0  0  0  0  0
    2.3543   -0.3560    6.5153 F   0  0  0  0  0  0  0  0  0  0  0  0
    5.8898    0.8213    3.7811 F   0  0  0  0  0  0  0  0  0  0  0  0
    5.5362   -1.6781    4.7817 F   0  0  0  0  0  0  0  0  0  0  0  0
    3.4036   -2.4669    2.3084 F   0  0  0  0  0  0  0  0  0  0  0  0
    3.6266    0.0187    1.2540 F   0  0  0  0  0  0  0  0  0  0  0  0
    0.5327   -1.8672    3.9480 F   0  0  0  0  0  0  0  0  0  0  0  0
    1.2112    0.7446    4.5211 F   0  0  0  0  0  0  0  0  0  0  0  0
  1  2  1  0
  1  3  1  0
  2  7  1  0
  2 24  1  0
  2 25  1  0
  3  4  1  0
  3 10  1  0
  3 11  1  0
  4  5  1  0
  4 12  1  0
  4 13  1  0
  5  8  1  0
  5 14  1  0
  5 15  1  0
  6  7  1  0
  6  9  1  0
  6 20  1  0
  6 21  1  0
  7 22  1  0
  7 23  1  0
  8  9  1  0
  8 16  1  0
  8 17  1  0
  9 18  1  0
  9 19  1  0
M  CHG  1   1   1
M  RAD  1   1   2
M  END
$$$$

     RDKit          3D

 25 25  0  0  0  0  0  0  0  0999 V2000
    0.0382    0.3090    1.6882 S   0  0  0  0  0  2  0  0  0  0  0  0
   -1.7421    1.1304    2.6830 Si  0  0  0  0  0  4  0  0  0  0  0  0
    1.7360    0.4248    3.0636 Si  0  0  0  0  0  4  0  0  0  0  0  0
    1.9560   -1.2266    4.4368 Si  0  0  0  0  0  4  0  0  0  0  0  0
    1.5107   -1.0720    6.5659 Si  0  0  0  0  0  4  0  0  0  0  0  0
   -2.5005    1.3752    6.4104 Si  0  0  0  0  0  4  0  0  0  0  0  0
   -1.4668    0.4325    4.7471 Si  0  0  0  0  0  4  0  0  0  0  0  0
    1.0147    0.8429    7.4706 Si  0  0  0  0  0  4  0  0  0  0  0  0
   -1.1327    1.0163    8.2018 Si  0  0  0  0  0  4  0  0  0  0  0  0
    3.0338    0.3375    1.9119 F   0  0  0  0  0  0  0  0  0  0  0  0
    1.9540    1.9771    3.6538 F   0  0  0  0  0  0  0  0  0  0  0  0
    3.5461   -1.8774    4.2758 F   0  0  0  0  0  0  0  0  0  0  0  0
    1.0113   -2.5190    3.7914 F   0  0  0  0  0  0  0  0  0  0  0  0
    2.7897   -1.8040    7.4652 F   0  0  0  0  0  0  0  0  0  0  0  0
    0.2155   -2.1303    6.9927 F   0  0  0  0  0  0  0  0  0  0  0  0
    1.8741    0.9733    8.9668 F   0  0  0  0  0  0  0  0  0  0  0  0
    1.5131    2.2207    6.6728 F   0  0  0  0  0  0  0  0  0  0  0  0
   -1.5364   -0.3867    8.9836 F   0  0  0  0  0  0  0  0  0  0  0  0
   -1.1901    2.3883    9.1672 F   0  0  0  0  0  0  0  0  0  0  0  0
   -3.9593    0.6075    6.8015 F   0  0  0  0  0  0  0  0  0  0  0  0
   -2.7289    3.0047    6.1734 F   0  0  0  0  0  0  0  0  0  0  0  0
   -1.5109   -1.2344    4.7488 F   0  0  0  0  0  0  0  0  0  0  0  0
    0.1045    1.0611    5.0005 F   0  0  0  0  0  0  0  0  0  0  0  0
   -1.6005    2.8059    2.5318 F   0  0  0  0  0  0  0  0  0  0  0  0
   -3.1035    0.5318    1.9353 F   0  0  0  0  0  0  0  0  0  0  0  0
  1  2  1  0
  1  3  1  0
  2  7  1  0
  2 24  1  0
  2 25  1  0
  3  4  1  0
  3 10  1  0
  3 11  1  0
  4  5  1  0
  4 12  1  0
  4 13  1  0
  5  8  1  0
  5 14  1  0
  5 15  1  0
  6  7  1  0
  6  9  1  0
  6 20  1  0
  6 21  1  0
  7 22  1  0
  7 23  1  0
  8  9  1  0
  8 16  1  0
  8 17  1  0
  9 18  1  0
  9 19  1  0
M  CHG  1   1   1
M  RAD  1   1   2
M  END
$$$$

     RDKit          3D

 25 25  0  0  0  0  0  0  0  0999 V2000
    0.0382    0.3090    1.6882 S   0  0  0  0  0  2  0  0  0  0  0  0
    1.6593   -0.3949    2.7542 Si  0  0  0  0  0  4  0  0  0  0  0  0
   -1.7237    0.9371    2.5271 Si  0  0  0  0  0  4  0  0  0  0  0  0
   -1.8202    2.3838    4.1485 Si  0  0  0  0  0  4  0  0  0  0  0  0
   -1.6423    4.5534    3.5278 Si  0  0  0  0  0  4  0  0  0  0  0  0
    3.4691    2.8120    2.2836 Si  0  0  0  0  0  4  0  0  0  0  0  0
    3.6349    0.5434    2.1091 Si  0  0  0  0  0  4  0  0  0  0  0  0
    0.5660    5.0707    3.2589 Si  0  0  0  0  0  4  0  0  0  0  0  0
    1.3513    3.2131    2.4343 Si  0  0  0  0  0  4  0  0  0  0  0  0
   -2.6140   -0.4482    3.0237 F   0  0  0  0  0  0  0  0  0  0  0  0
   -2.6949    1.5729    1.2565 F   0  0  0  0  0  0  0  0  0  0  0  0
   -0.8734    2.0510    5.4850 F   0  0  0  0  0  0  0  0  0  0  0  0
   -3.4270    2.3232    4.7686 F   0  0  0  0  0  0  0  0  0  0  0  0
   -2.4692    4.7759    2.1059 F   0  0  0  0  0  0  0  0  0  0  0  0
   -2.1945    5.4850    4.7934 F   0  0  0  0  0  0  0  0  0  0  0  0
    1.1978    5.3482    4.7933 F   0  0  0  0  0  0  0  0  0  0  0  0
    0.7159    6.4001    2.2564 F   0  0  0  0  0  0  0  0  0  0  0  0
    0.8531    2.0814    3.6417 F   0  0  0  0  0  0  0  0  0  0  0  0
    0.5600    2.9361    0.9761 F   0  0  0  0  0  0  0  0  0  0  0  0
    4.0874    3.4345    0.8369 F   0  0  0  0  0  0  0  0  0  0  0  0
    4.3893    3.3664    3.5519 F   0  0  0  0  0  0  0  0  0  0  0  0
    4.7969    0.0488    3.2269 F   0  0  0  0  0  0  0  0  0  0  0  0
    3.9827    0.0929    0.5532 F   0  0  0  0  0  0  0  0  0  0  0  0
    1.5189   -0.2433    4.4491 F   0  0  0  0  0  0  0  0  0  0  0  0
    1.8609   -2.0529    2.4597 F   0  0  0  0  0  0  0  0  0  0  0  0
  1  2  1  0
  1  3  1  0
  2  7  1  0
  2 24  1  0
  2 25  1  0
  3  4  1  0
  3 10  1  0
  3 11  1  0
  4  5  1  0
  4 12  1  0
  4 13  1  0
  5  8  1  0
  5 14  1  0
  5 15  1  0
  6  7  1  0
  6  9  1  0
  6 20  1  0
  6 21  1  0
  7 22  1  0
  7 23  1  0
  8  9  1  0
  8 16  1  0
  8 17  1  0
  9 18  1  0
  9 19  1  0
M  CHG  1   1   1
M  RAD  1   1   2
M  END
$$$$

     RDKit          3D

 25 25  0  0  0  0  0  0  0  0999 V2000
    0.0382    0.3090    1.6882 S   0  0  0  0  0  2  0  0  0  0  0  0
    0.2800   -0.5148    3.6135 Si  0  0  0  0  0  4  0  0  0  0  0  0
    0.5292    2.3352    1.4779 Si  0  0  0  0  0  4  0  0  0  0  0  0
    2.4360    2.9210    2.4659 Si  0  0  0  0  0  4  0  0  0  0  0  0
    2.2030    4.7867    3.6243 Si  0  0  0  0  0  4  0  0  0  0  0  0
   -0.6667    2.1909    5.9793 Si  0  0  0  0  0  4  0  0  0  0  0  0
   -1.1275    0.2357    5.1175 Si  0  0  0  0  0  4  0  0  0  0  0  0
    2.1757    4.5180    5.8023 Si  0  0  0  0  0  4  0  0  0  0  0  0
    1.4661    2.5103    6.4586 Si  0  0  0  0  0  4  0  0  0  0  0  0
    0.6028    2.6727   -0.1988 F   0  0  0  0  0  0  0  0  0  0  0  0
   -0.6982    3.3675    2.0657 F   0  0  0  0  0  0  0  0  0  0  0  0
    3.0765    1.6668    3.3872 F   0  0  0  0  0  0  0  0  0  0  0  0
    3.5753    3.2194    1.2432 F   0  0  0  0  0  0  0  0  0  0  0  0
    0.7289    5.5082    3.1489 F   0  0  0  0  0  0  0  0  0  0  0  0
    3.4103    5.8994    3.2301 F   0  0  0  0  0  0  0  0  0  0  0  0
    3.7037    4.7707    6.4744 F   0  0  0  0  0  0  0  0  0  0  0  0
    1.1443    5.6697    6.5073 F   0  0  0  0  0  0  0  0  0  0  0  0
    2.4789    1.3390    5.8441 F   0  0  0  0  0  0  0  0  0  0  0  0
    1.6945    2.4730    8.1551 F   0  0  0  0  0  0  0  0  0  0  0  0
   -1.2534    3.4688    5.0061 F   0  0  0  0  0  0  0  0  0  0  0  0
   -1.5741    2.3348    7.4260 F   0  0  0  0  0  0  0  0  0  0  0  0
   -1.2264   -0.9088    6.3809 F   0  0  0  0  0  0  0  0  0  0  0  0
   -2.6761    0.2886    4.4260 F   0  0  0  0  0  0  0  0  0  0  0  0
   -0.0387   -2.1961    3.4550 F   0  0  0  0  0  0  0  0  0  0  0  0
    1.8881   -0.4525    4.1413 F   0  0  0  0  0  0  0  0  0  0  0  0
  1  2  1  0
  1  3  1  0
  2  7  1  0
  2 24  1  0
  2 25  1  0
  3  4  1  0
  3 10  1  0
  3 11  1  0
  4  5  1  0
  4 12  1  0
  4 13  1  0
  5  8  1  0
  5 14  1  0
  5 15  1  0
  6  7  1  0
  6  9  1  0
  6 20  1  0
  6 21  1  0
  7 22  1  0
  7 23  1  0
  8  9  1  0
  8 16  1  0
  8 17  1  0
  9 18  1  0
  9 19  1  0
M  CHG  1   1   1
M  RAD  1   1   2
M  END
$$$$

     RDKit          3D

 25 25  0  0  0  0  0  0  0  0999 V2000
    0.0382    0.3090    1.6882 S   0  0  0  0  0  2  0  0  0  0  0  0
    1.4976   -0.8553    2.7489 Si  0  0  0  0  0  4  0  0  0  0  0  0
   -1.6740    0.7014    2.9073 Si  0  0  0  0  0  4  0  0  0  0  0  0
   -1.9182    2.8684    3.3387 Si  0  0  0  0  0  4  0  0  0  0  0  0
   -0.1566    4.0720    2.8499 Si  0  0  0  0  0  4  0  0  0  0  0  0
    1.9876    1.0100    5.8662 Si  0  0  0  0  0  4  0  0  0  0  0  0
    2.7988    0.6044    3.8534 Si  0  0  0  0  0  4  0  0  0  0  0  0
    1.2711    4.3844    4.4803 Si  0  0  0  0  0  4  0  0  0  0  0  0
    1.1162    2.9777    6.1596 Si  0  0  0  0  0  4  0  0  0  0  0  0
   -3.0239    0.0653    2.0996 F   0  0  0  0  0  0  0  0  0  0  0  0
   -1.5155   -0.1815    4.3372 F   0  0  0  0  0  0  0  0  0  0  0  0
   -2.4329    3.0476    4.9420 F   0  0  0  0  0  0  0  0  0  0  0  0
   -3.2361    3.4049    2.3888 F   0  0  0  0  0  0  0  0  0  0  0  0
    0.6684    3.3836    1.5258 F   0  0  0  0  0  0  0  0  0  0  0  0
   -0.6928    5.5942    2.2829 F   0  0  0  0  0  0  0  0  0  0  0  0
    1.0800    5.9444    5.1134 F   0  0  0  0  0  0  0  0  0  0  0  0
    2.8678    4.3821    3.8795 F   0  0  0  0  0  0  0  0  0  0  0  0
    1.8635    3.7223    7.5011 F   0  0  0  0  0  0  0  0  0  0  0  0
   -0.5235    2.8392    6.6183 F   0  0  0  0  0  0  0  0  0  0  0  0
    0.8316   -0.2032    6.2051 F   0  0  0  0  0  0  0  0  0  0  0  0
    3.2407    0.7107    6.9890 F   0  0  0  0  0  0  0  0  0  0  0  0
    4.3468   -0.1036    3.9276 F   0  0  0  0  0  0  0  0  0  0  0  0
    2.9258    1.9615    2.8958 F   0  0  0  0  0  0  0  0  0  0  0  0
    2.4546   -1.7498    1.6918 F   0  0  0  0  0  0  0  0  0  0  0  0
    0.7640   -1.9229    3.8202 F   0  0  0  0  0  0  0  0  0  0  0  0
  1  2  1  0
  1  3  1  0
  2  7  1  0
  2 24  1  0
  2 25  1  0
  3  4  1  0
  3 10  1  0
  3 11  1  0
  4  5  1  0
  4 12  1  0
  4 13  1  0
  5  8  1  0
  5 14  1  0
  5 15  1  0
  6  7  1  0
  6  9  1  0
  6 20  1  0
  6 21  1  0
  7 22  1  0
  7 23  1  0
  8  9  1  0
  8 16  1  0
  8 17  1  0
  9 18  1  0
  9 19  1  0
M  CHG  1   1   1
M  RAD  1   1   2
M  END
$$$$

     RDKit          3D

 25 25  0  0  0  0  0  0  0  0999 V2000
    0.0382    0.3090    1.6882 S   0  0  0  0  0  2  0  0  0  0  0  0
    1.4440   -0.7214    2.8559 Si  0  0  0  0  0  4  0  0  0  0  0  0
   -1.6151    1.0757    2.7566 Si  0  0  0  0  0  4  0  0  0  0  0  0
   -1.5070    3.3040    2.7786 Si  0  0  0  0  0  4  0  0  0  0  0  0
   -1.2162    4.0605    4.8644 Si  0  0  0  0  0  4  0  0  0  0  0  0
    2.9696    2.0368    4.7687 Si  0  0  0  0  0  4  0  0  0  0  0  0
    1.7834    0.1551    4.8617 Si  0  0  0  0  0  4  0  0  0  0  0  0
    0.7952    4.9609    5.0641 Si  0  0  0  0  0  4  0  0  0  0  0  0
    2.2110    3.5888    6.1423 Si  0  0  0  0  0  4  0  0  0  0  0  0
   -1.7636    0.4414    4.3068 F   0  0  0  0  0  0  0  0  0  0  0  0
   -3.0415    0.6466    1.9212 F   0  0  0  0  0  0  0  0  0  0  0  0
   -0.2114    3.8378    1.8172 F   0  0  0  0  0  0  0  0  0  0  0  0
   -2.9041    3.9978    2.1170 F   0  0  0  0  0  0  0  0  0  0  0  0
   -2.4091    5.1982    5.2487 F   0  0  0  0  0  0  0  0  0  0  0  0
   -1.3554    2.7984    5.9542 F   0  0  0  0  0  0  0  0  0  0  0  0
    0.6617    6.4207    5.8652 F   0  0  0  0  0  0  0  0  0  0  0  0
    1.4942    5.2722    3.5405 F   0  0  0  0  0  0  0  0  0  0  0  0
    3.5313    4.5615    6.6186 F   0  0  0  0  0  0  0  0  0  0  0  0
    1.5299    2.9742    7.5357 F   0  0  0  0  0  0  0  0  0  0  0  0
    2.8775    2.6291    3.1866 F   0  0  0  0  0  0  0  0  0  0  0  0
    4.5944    1.7432    5.1301 F   0  0  0  0  0  0  0  0  0  0  0  0
    0.3565    0.3460    5.7205 F   0  0  0  0  0  0  0  0  0  0  0  0
    2.7168   -0.9750    5.7416 F   0  0  0  0  0  0  0  0  0  0  0  0
    2.9413   -0.7239    2.0368 F   0  0  0  0  0  0  0  0  0  0  0  0
    0.9972   -2.3418    3.0602 F   0  0  0  0  0  0  0  0  0  0  0  0
  1  2  1  0
  1  3  1  0
  2  7  1  0
  2 24  1  0
  2 25  1  0
  3  4  1  0
  3 10  1  0
  3 11  1  0
  4  5  1  0
  4 12  1  0
  4 13  1  0
  5  8  1  0
  5 14  1  0
  5 15  1  0
  6  7  1  0
  6  9  1  0
  6 20  1  0
  6 21  1  0
  7 22  1  0
  7 23  1  0
  8  9  1  0
  8 16  1  0
  8 17  1  0
  9 18  1  0
  9 19  1  0
M  CHG  1   1   1
M  RAD  1   1   2
M  END
$$$$

     RDKit          3D

 25 25  0  0  0  0  0  0  0  0999 V2000
    0.0382    0.3090    1.6882 S   0  0  0  0  0  2  0  0  0  0  0  0
   -1.1750    0.8856    3.3129 Si  0  0  0  0  0  4  0  0  0  0  0  0
    2.0117   -0.2244    2.1477 Si  0  0  0  0  0  4  0  0  0  0  0  0
    2.2101   -1.5509    3.9243 Si  0  0  0  0  0  4  0  0  0  0  0  0
    3.8177   -0.8586    5.2710 Si  0  0  0  0  0  4  0  0  0  0  0  0
    1.0736    2.7276    5.6290 Si  0  0  0  0  0  4  0  0  0  0  0  0
   -0.6177    2.7896    4.2456 Si  0  0  0  0  0  4  0  0  0  0  0  0
    3.1195    0.0677    7.1341 Si  0  0  0  0  0  4  0  0  0  0  0  0
    1.0940    0.9846    6.9864 Si  0  0  0  0  0  4  0  0  0  0  0  0
    2.6719   -0.9852    0.7636 F   0  0  0  0  0  0  0  0  0  0  0  0
    3.0121    1.1366    2.4022 F   0  0  0  0  0  0  0  0  0  0  0  0
    0.7430   -1.7530    4.7234 F   0  0  0  0  0  0  0  0  0  0  0  0
    2.6435   -3.0940    3.3648 F   0  0  0  0  0  0  0  0  0  0  0  0
    4.7515    0.2867    4.4133 F   0  0  0  0  0  0  0  0  0  0  0  0
    4.8721   -2.1205    5.6546 F   0  0  0  0  0  0  0  0  0  0  0  0
    3.0912   -1.0450    8.4036 F   0  0  0  0  0  0  0  0  0  0  0  0
    4.1947    1.2988    7.5982 F   0  0  0  0  0  0  0  0  0  0  0  0
   -0.0169   -0.1921    6.5907 F   0  0  0  0  0  0  0  0  0  0  0  0
    0.6951    1.4789    8.5764 F   0  0  0  0  0  0  0  0  0  0  0  0
    2.5693    2.8592    4.8107 F   0  0  0  0  0  0  0  0  0  0  0  0
    1.0053    4.1525    6.5788 F   0  0  0  0  0  0  0  0  0  0  0  0
   -1.9793    3.4022    5.0744 F   0  0  0  0  0  0  0  0  0  0  0  0
   -0.2855    3.9131    3.0182 F   0  0  0  0  0  0  0  0  0  0  0  0
   -2.7538    1.1094    2.6718 F   0  0  0  0  0  0  0  0  0  0  0  0
   -1.3673   -0.3598    4.4445 F   0  0  0  0  0  0  0  0  0  0  0  0
  1  2  1  0
  1  3  1  0
  2  7  1  0
  2 24  1  0
  2 25  1  0
  3  4  1  0
  3 10  1  0
  3 11  1  0
  4  5  1  0
  4 12  1  0
  4 13  1  0
  5  8  1  0
  5 14  1  0
  5 15  1  0
  6  7  1  0
  6  9  1  0
  6 20  1  0
  6 21  1  0
  7 22  1  0
  7 23  1  0
  8  9  1  0
  8 16  1  0
  8 17  1  0
  9 18  1  0
  9 19  1  0
M  CHG  1   1   1
M  RAD  1   1   2
M  END
$$$$

     RDKit          3D

 25 25  0  0  0  0  0  0  0  0999 V2000
    0.0382    0.3090    1.6882 S   0  0  0  0  0  2  0  0  0  0  0  0
    0.7735    2.1267    2.5553 Si  0  0  0  0  0  4  0  0  0  0  0  0
   -1.9911    0.0663    2.3106 Si  0  0  0  0  0  4  0  0  0  0  0  0
   -2.2471    0.5429    4.4841 Si  0  0  0  0  0  4  0  0  0  0  0  0
   -2.9305    2.6432    4.7646 Si  0  0  0  0  0  4  0  0  0  0  0  0
   -0.6003    5.4968    2.9975 Si  0  0  0  0  0  4  0  0  0  0  0  0
   -0.1540    3.8922    1.5518 Si  0  0  0  0  0  4  0  0  0  0  0  0
   -1.6315    3.7984    6.1143 Si  0  0  0  0  0  4  0  0  0  0  0  0
   -0.0718    4.9719    5.0843 Si  0  0  0  0  0  4  0  0  0  0  0  0
   -2.4392   -1.5372    1.9871 F   0  0  0  0  0  0  0  0  0  0  0  0
   -2.9838    1.0541    1.3636 F   0  0  0  0  0  0  0  0  0  0  0  0
   -3.4110   -0.5665    5.0664 F   0  0  0  0  0  0  0  0  0  0  0  0
   -0.8434    0.2126    5.3560 F   0  0  0  0  0  0  0  0  0  0  0  0
   -3.0491    3.4595    3.2923 F   0  0  0  0  0  0  0  0  0  0  0  0
   -4.4891    2.5941    5.4140 F   0  0  0  0  0  0  0  0  0  0  0  0
   -2.5938    4.8384    7.0330 F   0  0  0  0  0  0  0  0  0  0  0  0
   -0.8978    2.7295    7.2241 F   0  0  0  0  0  0  0  0  0  0  0  0
    0.1438    6.4262    5.9204 F   0  0  0  0  0  0  0  0  0  0  0  0
    1.4517    4.2032    5.1443 F   0  0  0  0  0  0  0  0  0  0  0  0
   -2.2027    5.9898    2.9500 F   0  0  0  0  0  0  0  0  0  0  0  0
    0.3430    6.8565    2.5737 F   0  0  0  0  0  0  0  0  0  0  0  0
    0.9467    4.4088    0.3529 F   0  0  0  0  0  0  0  0  0  0  0  0
   -1.5500    3.4137    0.6939 F   0  0  0  0  0  0  0  0  0  0  0  0
    2.4474    2.2394    2.4341 F   0  0  0  0  0  0  0  0  0  0  0  0
    0.2987    2.1536    4.1622 F   0  0  0  0  0  0  0  0  0  0  0  0
  1  2  1  0
  1  3  1  0
  2  7  1  0
  2 24  1  0
  2 25  1  0
  3  4  1  0
  3 10  1  0
  3 11  1  0
  4  5  1  0
  4 12  1  0
  4 13  1  0
  5  8  1  0
  5 14  1  0
  5 15  1  0
  6  7  1  0
  6  9  1  0
  6 20  1  0
  6 21  1  0
  7 22  1  0
  7 23  1  0
  8  9  1  0
  8 16  1  0
  8 17  1  0
  9 18  1  0
  9 19  1  0
M  CHG  1   1   1
M  RAD  1   1   2
M  END
$$$$

     RDKit          3D

 25 25  0  0  0  0  0  0  0  0999 V2000
    0.0382    0.3090    1.6882 S   0  0  0  0  0  2  0  0  0  0  0  0
    0.4219    2.2775    1.1436 Si  0  0  0  0  0  4  0  0  0  0  0  0
    1.4504   -0.6968    2.8474 Si  0  0  0  0  0  4  0  0  0  0  0  0
    1.2250   -0.3856    5.0294 Si  0  0  0  0  0  4  0  0  0  0  0  0
    0.2968    1.5691    5.5280 Si  0  0  0  0  0  4  0  0  0  0  0  0
    2.2994    5.0934    2.6054 Si  0  0  0  0  0  4  0  0  0  0  0  0
    2.4121    3.0652    1.6230 Si  0  0  0  0  0  4  0  0  0  0  0  0
    1.7651    3.2138    5.6320 Si  0  0  0  0  0  4  0  0  0  0  0  0
    1.0064    4.9224    4.3993 Si  0  0  0  0  0  4  0  0  0  0  0  0
    3.0586   -0.4135    2.3611 F   0  0  0  0  0  0  0  0  0  0  0  0
    1.2294   -2.3735    2.5708 F   0  0  0  0  0  0  0  0  0  0  0  0
    2.7176   -0.5673    5.8280 F   0  0  0  0  0  0  0  0  0  0  0  0
    0.2027   -1.5885    5.6708 F   0  0  0  0  0  0  0  0  0  0  0  0
   -0.4000    1.4018    7.0783 F   0  0  0  0  0  0  0  0  0  0  0  0
   -0.9639    1.8720    4.4654 F   0  0  0  0  0  0  0  0  0  0  0  0
    3.3012    2.7282    5.1261 F   0  0  0  0  0  0  0  0  0  0  0  0
    1.9534    3.7949    7.2260 F   0  0  0  0  0  0  0  0  0  0  0  0
    1.0870    6.3779    5.2602 F   0  0  0  0  0  0  0  0  0  0  0  0
   -0.6081    4.6959    3.9703 F   0  0  0  0  0  0  0  0  0  0  0  0
    3.8631    5.4568    3.1287 F   0  0  0  0  0  0  0  0  0  0  0  0
    1.7466    6.2480    1.5252 F   0  0  0  0  0  0  0  0  0  0  0  0
    3.3033    2.1075    2.6529 F   0  0  0  0  0  0  0  0  0  0  0  0
    3.3420    3.2912    0.2101 F   0  0  0  0  0  0  0  0  0  0  0  0
   -0.7826    3.2814    1.8234 F   0  0  0  0  0  0  0  0  0  0  0  0
    0.1873    2.4173   -0.5459 F   0  0  0  0  0  0  0  0  0  0  0  0
  1  2  1  0
  1  3  1  0
  2  7  1  0
  2 24  1  0
  2 25  1  0
  3  4  1  0
  3 10  1  0
  3 11  1  0
  4  5  1  0
  4 12  1  0
  4 13  1  0
  5  8  1  0
  5 14  1  0
  5 15  1  0
  6  7  1  0
  6  9  1  0
  6 20  1  0
  6 21  1  0
  7 22  1  0
  7 23  1  0
  8  9  1  0
  8 16  1  0
  8 17  1  0
  9 18  1  0
  9 19  1  0
M  CHG  1   1   1
M  RAD  1   1   2
M  END
$$$$
