@<TRIPOS>MOLECULE
S_SiF2_12_cyclic
38   38    1
SMALL
USER_CHARGES


@<TRIPOS>ATOM
      1 Si1         0.5300   -1.9095    1.1282 Si        1 ****        0.0000 
      2 Si2        -1.8132    0.8450    1.3943 Si        1 ****        0.0000 
      3 Si3        -0.5165    2.1958   -0.0185 Si        1 ****        0.0000 
      4 Si4        -0.0533    4.3355    0.8380 Si        1 ****        0.0000 
      5 Si5         1.4251    1.0761   -1.1132 Si        1 ****        0.0000 
      6 Si6         1.6187   -1.2282   -0.8256 Si        1 ****        0.0000 
      7 S7         -1.5625   -1.3020    1.0406 S.3       1 ****        0.0000 
      8 Si8         0.1812    5.9187   -0.8763 Si        1 ****        0.0000 
      9 Si9         3.0412    2.1970   -2.3716 Si        1 ****        0.0000 
     10 Si10        2.0728    5.4422   -2.1655 Si        1 ****        0.0000 
     11 Si11        2.9286    2.1982   -4.7117 Si        1 ****        0.0000 
     12 Si12        2.0846    5.8324   -4.4717 Si        1 ****        0.0000 
     13 Si13        3.5781    4.3178   -5.4315 Si        1 ****        0.0000 
     14 F14         1.2789   -1.2016    2.5426 F         1 ****        0.0000 
     15 F15         0.6337   -3.6538    1.2244 F         1 ****        0.0000 
     16 F16        -1.3406    1.1941    3.0427 F         1 ****        0.0000 
     17 F17        -3.5018    1.2389    1.1581 F         1 ****        0.0000 
     18 F18        -1.3903    4.8106    1.8624 F         1 ****        0.0000 
     19 F19         1.4231    4.2877    1.7762 F         1 ****        0.0000 
     20 F20         0.3743    7.5106   -0.1756 F         1 ****        0.0000 
     21 F21        -1.2512    5.8899   -1.8812 F         1 ****        0.0000 
     22 F22         0.8740   -2.0269   -2.1931 F         1 ****        0.0000 
     23 F23         3.3098   -1.6696   -0.7364 F         1 ****        0.0000 
     24 F24         0.4753    5.5702   -5.1071 F         1 ****        0.0000 
     25 F25         2.5828    7.4724   -4.8252 F         1 ****        0.0000 
     26 F26         3.5299    4.4357   -7.1769 F         1 ****        0.0000 
     27 F27         5.2070    4.6449   -4.8818 F         1 ****        0.0000 
     28 F28         3.9914    0.9724   -5.3677 F         1 ****        0.0000 
     29 F29         1.2897    1.8767   -5.2345 F         1 ****        0.0000 
     30 F30        -2.0558    2.9018   -0.4595 F         1 ****        0.0000 
     31 F31        -0.5777    0.7878   -1.0560 F         1 ****        0.0000 
     32 F32         0.7811    2.6981   -0.9837 F         1 ****        0.0000 
     33 F33         2.6505    1.1308    0.1349 F         1 ****        0.0000 
     34 F34         2.9873    6.5371   -1.1518 F         1 ****        0.0000 
     35 F35         3.7141    4.8741   -2.3797 F         1 ****        0.0000 
     36 F36         1.7861    3.4075   -2.5190 F         1 ****        0.0000 
     37 F37         4.4625    3.1578   -2.7169 F         1 ****        0.0000 
     38 H38        -2.5538   -2.1251    0.8040 H         1 ****        0.0000 
@<TRIPOS>BOND
     1    1    6 1    
     2    1    7 1    
     3    1   14 1    
     4    1   15 1    
     5    2    3 1    
     6    2    7 1    
     7    2   16 1    
     8    2   17 1    
     9    3    4 1    
    10    3   30 1    
    11    3   31 1    
    12    4    8 1    
    13    4   18 1    
    14    4   19 1    
    15    5    6 1    
    16    5    9 1    
    17    5   32 1    
    18    5   33 1    
    19    6   22 1    
    20    6   23 1    
    21    7   38 1    
    22    8   10 1    
    23    8   20 1    
    24    8   21 1    
    25    9   11 1    
    26    9   36 1    
    27    9   37 1    
    28   10   12 1    
    29   10   34 1    
    30   10   35 1    
    31   11   13 1    
    32   11   28 1    
    33   11   29 1    
    34   12   13 1    
    35   12   24 1    
    36   12   25 1    
    37   13   26 1    
    38   13   27 1    
@<TRIPOS>SUBSTRUCTURE
     1 ****        1 GROUP             0       ****    0 ROOT    
