@<TRIPOS>MOLECULE
S_SiF2_8_cyclic
26   26    1
SMALL
USER_CHARGES


@<TRIPOS>ATOM
      1 Si1         1.6806   -2.0535    0.3411 Si        1 ****        0.0000 
      2 Si2         0.2234    0.5160    2.5258 Si        1 ****        0.0000 
      3 Si3        -0.2943    1.6269    0.5436 Si        1 ****        0.0000 
      4 Si4         0.5673    3.7640    0.1673 Si        1 ****        0.0000 
      5 Si5         1.1728    1.3569   -1.3610 Si        1 ****        0.0000 
      6 Si6         0.8370   -0.9531   -1.5545 Si        1 ****        0.0000 
      7 S7          0.4316   -1.6081    2.0832 S.3       1 ****        0.0000 
      8 Si8         0.2121    4.2844   -2.0757 Si        1 ****        0.0000 
      9 Si9         1.4329    2.6958   -3.2750 Si        1 ****        0.0000 
     10 H10        -0.1433   -2.5414    2.8005 H         1 ****        0.0000 
     11 F11         1.7155    1.1599    3.1750 F         1 ****        0.0000 
     12 F12        -1.0580    0.7311    3.6981 F         1 ****        0.0000 
     13 F13        -1.5168    2.5724    1.3647 F         1 ****        0.0000 
     14 F14        -1.6168    1.0231   -0.4306 F         1 ****        0.0000 
     15 F15        -0.2223    4.9161    1.2216 F         1 ****        0.0000 
     16 F16         2.2891    3.7835    0.4794 F         1 ****        0.0000 
     17 F17         0.8003    5.8940   -2.4304 F         1 ****        0.0000 
     18 F18        -1.4901    4.2043   -2.4739 F         1 ****        0.0000 
     19 F19         0.6691    1.3318   -4.0614 F         1 ****        0.0000 
     20 F20         3.1734    2.7056   -3.0933 F         1 ****        0.0000 
     21 F21         1.3910    2.0658    0.2240 F         1 ****        0.0000 
     22 F22         2.8641    0.9227   -1.4770 F         1 ****        0.0000 
     23 F23        -0.8690   -1.3155   -1.6983 F         1 ****        0.0000 
     24 F24         1.6765   -1.5043   -2.9877 F         1 ****        0.0000 
     25 F25         3.3325   -1.5471    0.6190 F         1 ****        0.0000 
     26 F26         1.6352   -3.7823    0.0731 F         1 ****        0.0000 
@<TRIPOS>BOND
     1    1    6 1    
     2    1    7 1    
     3    1   25 1    
     4    1   26 1    
     5    2    3 1    
     6    2    7 1    
     7    2   11 1    
     8    2   12 1    
     9    3    4 1    
    10    3   13 1    
    11    3   14 1    
    12    4    8 1    
    13    4   15 1    
    14    4   16 1    
    15    5    6 1    
    16    5    9 1    
    17    5   21 1    
    18    5   22 1    
    19    6   23 1    
    20    6   24 1    
    21    7   10 1    
    22    8    9 1    
    23    8   17 1    
    24    8   18 1    
    25    9   19 1    
    26    9   20 1    
@<TRIPOS>SUBSTRUCTURE
     1 ****        1 GROUP             0       ****    0 ROOT    
