@<TRIPOS>MOLECULE
S_SiF2_10_cyclic
32   32    1
SMALL
USER_CHARGES


@<TRIPOS>ATOM
      1 Si1         1.2804   -2.3864    0.5503 Si        1 ****        0.0000 
      2 Si2         0.1460    0.3166    2.4261 Si        1 ****        0.0000 
      3 Si3        -0.3693    1.4489    0.4855 Si        1 ****        0.0000 
      4 Si4         0.6399    3.5206    0.4014 Si        1 ****        0.0000 
      5 Si5         2.1708    1.1845   -0.9649 Si        1 ****        0.0000 
      6 Si6         1.6432   -1.0791   -1.4074 Si        1 ****        0.0000 
      7 S7         -0.3076   -1.7303    1.9247 S.3       1 ****        0.0000 
      8 Si8         0.0214    4.2661   -1.6943 Si        1 ****        0.0000 
      9 Si9         3.1580    2.2405   -2.8582 Si        1 ****        0.0000 
     10 H10        -0.2898   -2.4945    2.9885 H         1 ****        0.0000 
     11 Si11        1.6077    5.7307   -2.4897 Si        1 ****        0.0000 
     12 Si12        3.6041    4.5097   -2.3632 Si        1 ****        0.0000 
     13 F13         1.8441    0.4330    2.8329 F         1 ****        0.0000 
     14 F14        -0.7917    0.9447    3.7635 F         1 ****        0.0000 
     15 F15         0.9016   -4.0173    0.0412 F         1 ****        0.0000 
     16 F16         2.7767   -2.3583    1.4573 F         1 ****        0.0000 
     17 F17         0.2307   -1.1204   -2.4397 F         1 ****        0.0000 
     18 F18         3.0083   -1.8071   -2.2253 F         1 ****        0.0000 
     19 F19         4.6622    1.4050   -3.1774 F         1 ****        0.0000 
     20 F20         2.1269    2.1494   -4.2693 F         1 ****        0.0000 
     21 F21         4.7349    5.2334   -3.4857 F         1 ****        0.0000 
     22 F22         4.2796    4.5427   -0.7492 F         1 ****        0.0000 
     23 F23         1.1977    6.1002   -4.1504 F         1 ****        0.0000 
     24 F24         1.7309    7.2302   -1.5960 F         1 ****        0.0000 
     25 F25        -1.5881    4.9520   -1.6547 F         1 ****        0.0000 
     26 F26         0.0489    2.9007   -2.7886 F         1 ****        0.0000 
     27 F27         2.3700    3.2731    0.4906 F         1 ****        0.0000 
     28 F28         0.1760    4.6368    1.6668 F         1 ****        0.0000 
     29 F29         0.7118    2.0143   -0.4697 F         1 ****        0.0000 
     30 F30         0.2730    0.5403   -0.8652 F         1 ****        0.0000 
     31 F31         3.3570    1.2528    0.3200 F         1 ****        0.0000 
     32 F32        -2.1082    1.5816    0.3397 F         1 ****        0.0000 
@<TRIPOS>BOND
     1    1    6 1    
     2    1    7 1    
     3    1   15 1    
     4    1   16 1    
     5    2    3 1    
     6    2    7 1    
     7    2   13 1    
     8    2   14 1    
     9    3    4 1    
    10    3   30 1    
    11    3   32 1    
    12    4    8 1    
    13    4   27 1    
    14    4   28 1    
    15    5    6 1    
    16    5    9 1    
    17    5   29 1    
    18    5   31 1    
    19    6   17 1    
    20    6   18 1    
    21    7   10 1    
    22    8   11 1    
    23    8   25 1    
    24    8   26 1    
    25    9   12 1    
    26    9   19 1    
    27    9   20 1    
    28   11   12 1    
    29   11   23 1    
    30   11   24 1    
    31   12   21 1    
    32   12   22 1    
@<TRIPOS>SUBSTRUCTURE
     1 ****        1 GROUP             0       ****    0 ROOT    
