@<TRIPOS>MOLECULE
S_SiH2_12_cyclic
38   38    1
SMALL
USER_CHARGES


@<TRIPOS>ATOM
      1 Si1         0.5733   -1.8388    1.2852 Si        1 ****        0.0000 
      2 H2          0.6979   -3.2878    1.4994 H         1 ****        0.0000 
      3 H3          1.2027   -1.1231    2.4043 H         1 ****        0.0000 
      4 Si4        -1.8671    0.8526    1.4753 Si        1 ****        0.0000 
      5 H5         -1.5439    1.1837    2.8706 H         1 ****        0.0000 
      6 H6         -3.2831    1.1421    1.2069 H         1 ****        0.0000 
      7 Si7        -0.5402    2.1959    0.0820 Si        1 ****        0.0000 
      8 Si8        -0.0814    4.3539    0.8895 Si        1 ****        0.0000 
      9 Si9         1.3537    0.9800   -1.1692 Si        1 ****        0.0000 
     10 Si10        1.6198   -1.2943   -0.7324 Si        1 ****        0.0000 
     11 S11        -1.5327   -1.2888    1.1688 S.3       1 ****        0.0000 
     12 H12         1.0009   -2.0653   -1.8202 H         1 ****        0.0000 
     13 H13         3.0505   -1.6220   -0.6508 H         1 ****        0.0000 
     14 Si14        0.1297    5.8979   -0.8642 Si        1 ****        0.0000 
     15 Si15        2.9344    2.1063   -2.4653 Si        1 ****        0.0000 
     16 Si16        1.9920    5.3909   -2.1868 Si        1 ****        0.0000 
     17 Si17        2.7631    2.1331   -4.7995 Si        1 ****        0.0000 
     18 H18        -1.1978    4.7690    1.7510 H         1 ****        0.0000 
     19 H19         1.1657    4.3349    1.6677 H         1 ****        0.0000 
     20 H20         0.3072    7.2460   -0.3057 H         1 ****        0.0000 
     21 H21        -1.0892    5.8601   -1.6851 H         1 ****        0.0000 
     22 H22         3.6361    1.1055   -5.3849 H         1 ****        0.0000 
     23 H23         1.3746    1.8752   -5.2076 H         1 ****        0.0000 
     24 Si24        1.9500    5.7776   -4.4952 Si        1 ****        0.0000 
     25 H25         2.3710    7.1528   -4.7992 H         1 ****        0.0000 
     26 H26         0.5831    5.5674   -4.9934 H         1 ****        0.0000 
     27 Si27        3.4068    4.2586   -5.5069 Si        1 ****        0.0000 
     28 H28         4.7881    4.5192   -5.0766 H         1 ****        0.0000 
     29 H29         3.3296    4.3739   -6.9704 H         1 ****        0.0000 
     30 H30         3.1273    6.1499   -1.6426 H         1 ****        0.0000 
     31 H31         2.2828    3.9630   -1.9935 H         1 ****        0.0000 
     32 H32         2.9396    3.5065   -2.0177 H         1 ****        0.0000 
     33 H33         4.2478    1.5338   -2.1364 H         1 ****        0.0000 
     34 H34         0.0508    1.1470   -1.8292 H         1 ****        0.0000 
     35 H35         1.2851    1.6674    0.1284 H         1 ****        0.0000 
     36 H36         0.7395    1.5062   -0.1367 H         1 ****        0.0000 
     37 H37        -1.2216    2.3262   -1.2139 H         1 ****        0.0000 
     38 H38        -2.4950   -2.1477    0.9400 H         1 ****        0.0000 
@<TRIPOS>BOND
     1    1    2 1    
     2    1    3 1    
     3    1   10 1    
     4    1   11 1    
     5    4    5 1    
     6    4    6 1    
     7    4    7 1    
     8    4   11 1    
     9    7    8 1    
    10    7   36 1    
    11    7   37 1    
    12    8   14 1    
    13    8   18 1    
    14    8   19 1    
    15    9   10 1    
    16    9   15 1    
    17    9   34 1    
    18    9   35 1    
    19   10   12 1    
    20   10   13 1    
    21   11   38 1    
    22   14   16 1    
    23   14   20 1    
    24   14   21 1    
    25   15   17 1    
    26   15   32 1    
    27   15   33 1    
    28   16   24 1    
    29   16   30 1    
    30   16   31 1    
    31   17   22 1    
    32   17   23 1    
    33   17   27 1    
    34   24   25 1    
    35   24   26 1    
    36   24   27 1    
    37   27   28 1    
    38   27   29 1    
@<TRIPOS>SUBSTRUCTURE
     1 ****        1 GROUP             0       ****    0 ROOT    
