@<TRIPOS>MOLECULE
S_SiH2_8_cyclic
26   26    1
SMALL
USER_CHARGES


@<TRIPOS>ATOM
      1 Si1         1.6806   -2.0535    0.3411 Si        1 ****        0.0000 
      2 H2          1.6425   -3.5056    0.1160 H         1 ****        0.0000 
      3 H3          3.0682   -1.6281    0.5745 H         1 ****        0.0000 
      4 Si4         0.2234    0.5160    2.5258 Si        1 ****        0.0000 
      5 H5          1.4768    1.0569    3.0711 H         1 ****        0.0000 
      6 H6         -0.8530    0.6967    3.5105 H         1 ****        0.0000 
      7 Si7        -0.2943    1.6269    0.5436 Si        1 ****        0.0000 
      8 Si8         0.5673    3.7640    0.1673 Si        1 ****        0.0000 
      9 H9         -0.0960    4.7318    1.0529 H         1 ****        0.0000 
     10 H10         2.0136    3.7804    0.4295 H         1 ****        0.0000 
     11 Si11        1.1728    1.3569   -1.3610 Si        1 ****        0.0000 
     12 Si12        0.8370   -0.9531   -1.5545 Si        1 ****        0.0000 
     13 S13         0.4316   -1.6081    2.0832 S.3       1 ****        0.0000 
     14 H14        -0.5961   -1.2575   -1.6753 H         1 ****        0.0000 
     15 H15         1.5422   -1.4161   -2.7584 H         1 ****        0.0000 
     16 Si16        0.2121    4.2844   -2.0757 Si        1 ****        0.0000 
     17 H17        -1.2178    4.2171   -2.4102 H         1 ****        0.0000 
     18 H18         0.7062    5.6364   -2.3736 H         1 ****        0.0000 
     19 Si19        1.4329    2.6958   -3.2750 Si        1 ****        0.0000 
     20 H20         2.8949    2.7040   -3.1224 H         1 ****        0.0000 
     21 H21         0.7913    1.5500   -3.9356 H         1 ****        0.0000 
     22 H22         1.3561    1.9524   -0.0296 H         1 ****        0.0000 
     23 H23         2.5935    0.9922   -1.4584 H         1 ****        0.0000 
     24 H24        -1.4052    1.1197   -0.2747 H         1 ****        0.0000 
     25 H25        -1.3212    2.4211    1.2333 H         1 ****        0.0000 
     26 H26        -0.1433   -2.5414    2.8005 H         1 ****        0.0000 
@<TRIPOS>BOND
     1    1    2 1    
     2    1    3 1    
     3    1   12 1    
     4    1   13 1    
     5    4    5 1    
     6    4    6 1    
     7    4    7 1    
     8    4   13 1    
     9    7    8 1    
    10    7   24 1    
    11    7   25 1    
    12    8    9 1    
    13    8   10 1    
    14    8   16 1    
    15   11   12 1    
    16   11   19 1    
    17   11   22 1    
    18   11   23 1    
    19   12   14 1    
    20   12   15 1    
    21   13   26 1    
    22   16   17 1    
    23   16   18 1    
    24   16   19 1    
    25   19   20 1    
    26   19   21 1    
@<TRIPOS>SUBSTRUCTURE
     1 ****        1 GROUP             0       ****    0 ROOT    
