@<TRIPOS>MOLECULE
S_SiH2_10_cyclic
32   32    1
SMALL
USER_CHARGES


@<TRIPOS>ATOM
      1 Si1         1.2804   -2.3864    0.5503 Si        1 ****        0.0000 
      2 H2          0.9622   -3.7563    0.1227 H         1 ****        0.0000 
      3 H3          2.5373   -2.3628    1.3122 H         1 ****        0.0000 
      4 Si4         0.1460    0.3166    2.4261 Si        1 ****        0.0000 
      5 H5          1.5723    0.4144    2.7678 H         1 ****        0.0000 
      6 H6         -0.6417    0.8442    3.5496 H         1 ****        0.0000 
      7 Si7        -0.3693    1.4489    0.4855 Si        1 ****        0.0000 
      8 Si8         0.6399    3.5206    0.4014 Si        1 ****        0.0000 
      9 H9          0.2502    4.4582    1.4643 H         1 ****        0.0000 
     10 H10         2.0932    3.3127    0.4763 H         1 ****        0.0000 
     11 Si11        2.1708    1.1845   -0.9649 Si        1 ****        0.0000 
     12 Si12        1.6432   -1.0791   -1.4074 Si        1 ****        0.0000 
     13 S13        -0.3076   -1.7303    1.9247 S.3       1 ****        0.0000 
     14 H14         0.4567   -1.1138   -2.2745 H         1 ****        0.0000 
     15 H15         2.7899   -1.6906   -2.0944 H         1 ****        0.0000 
     16 Si16        0.0214    4.2661   -1.6943 Si        1 ****        0.0000 
     17 H17        -1.3306    4.8423   -1.6610 H         1 ****        0.0000 
     18 Si18        3.1580    2.2405   -2.8582 Si        1 ****        0.0000 
     19 H19         4.4215    1.5387   -3.1263 H         1 ****        0.0000 
     20 H20         0.9452    1.8815   -0.5489 H         1 ****        0.0000 
     21 H21         3.1672    1.2419    0.1144 H         1 ****        0.0000 
     22 H22         0.1702    0.6857   -0.6491 H         1 ****        0.0000 
     23 H23        -1.8300    1.5604    0.3630 H         1 ****        0.0000 
     24 H24        -0.2898   -2.4945    2.9885 H         1 ****        0.0000 
     25 H25         2.2919    2.1640   -4.0435 H         1 ****        0.0000 
     26 H26         0.0445    3.1192   -2.6135 H         1 ****        0.0000 
     27 Si27        1.6077    5.7307   -2.4897 Si        1 ****        0.0000 
     28 H28         1.2633    6.0411   -3.8847 H         1 ****        0.0000 
     29 H29         1.7112    6.9903   -1.7390 H         1 ****        0.0000 
     30 Si30        3.6041    4.5097   -2.3632 Si        1 ****        0.0000 
     31 H31         4.1715    4.5374   -1.0074 H         1 ****        0.0000 
     32 H32         4.5539    5.1176   -3.3061 H         1 ****        0.0000 
@<TRIPOS>BOND
     1    1    2 1    
     2    1    3 1    
     3    1   12 1    
     4    1   13 1    
     5    4    5 1    
     6    4    6 1    
     7    4    7 1    
     8    4   13 1    
     9    7    8 1    
    10    7   22 1    
    11    7   23 1    
    12    8    9 1    
    13    8   10 1    
    14    8   16 1    
    15   11   12 1    
    16   11   18 1    
    17   11   20 1    
    18   11   21 1    
    19   12   14 1    
    20   12   15 1    
    21   13   24 1    
    22   16   17 1    
    23   16   26 1    
    24   16   27 1    
    25   18   19 1    
    26   18   25 1    
    27   18   30 1    
    28   27   28 1    
    29   27   29 1    
    30   27   30 1    
    31   30   31 1    
    32   30   32 1    
@<TRIPOS>SUBSTRUCTURE
     1 ****        1 GROUP             0       ****    0 ROOT    
