@<TRIPOS>MOLECULE
S_SiF2_10_acyclic
34   33    1
SMALL
USER_CHARGES


@<TRIPOS>ATOM
      1 S1         -0.1420   -0.3523    0.0000 S.3       1 ****        0.0000 
      2 Si2         0.9442   -2.2424    0.0000 Si        1 ****        0.0000 
      3 Si3        -2.3220   -0.3523   -0.0037 Si        1 ****        0.0000 
      4 Si4        -0.5799   -4.0179   -0.0000 Si        1 ****        0.0000 
      5 Si5        -3.1020   -2.5584   -0.0074 Si        1 ****        0.0000 
      6 Si6        -5.4420   -2.5584   -0.0134 Si        1 ****        0.0000 
      7 Si7         0.5861   -6.0467    0.0012 Si        1 ****        0.0000 
      8 Si8        -0.9380   -7.8223    0.0009 Si        1 ****        0.0000 
      9 Si9        -6.2220   -4.7646   -0.0164 Si        1 ****        0.0000 
     10 Si10       -2.2852   -7.6943    1.9099 Si        1 ****        0.0000 
     11 Si11       -5.4475   -5.8683    1.8961 Si        1 ****        0.0000 
     12 H12         0.5141    0.7816    0.0022 H         1 ****        0.0000 
     13 F13        -2.9078    0.4711    1.4250 F         1 ****        0.0000 
     14 F14         1.9501   -2.3370    1.4289 F         1 ****        0.0000 
     15 F15         1.9502   -2.3370   -1.4288 F         1 ****        0.0000 
     16 F16        -2.9030    0.4742   -1.4326 F         1 ****        0.0000 
     17 F17        -2.5150   -3.3823   -1.4354 F         1 ****        0.0000 
     18 F18        -2.5224   -3.3845    1.4223 F         1 ****        0.0000 
     19 F19        -1.5853   -3.9237   -1.4293 F         1 ****        0.0000 
     20 F20        -1.5864   -3.9228    1.4284 F         1 ****        0.0000 
     21 F21         1.5928   -6.1418   -1.4271 F         1 ****        0.0000 
     22 F22         1.5912   -6.1411    1.4307 F         1 ****        0.0000 
     23 F23        -1.9423   -7.7286   -1.4291 F         1 ****        0.0000 
     24 F24        -0.0661   -9.3396    0.0029 F         1 ****        0.0000 
     25 F25        -2.1307   -9.1729    2.8331 F         1 ****        0.0000 
     26 F26        -1.7777   -6.3377    2.8921 F         1 ****        0.0000 
     27 F27        -3.9546   -7.4766    1.4323 F         1 ****        0.0000 
     28 F28        -5.2640   -7.5741    1.5511 F         1 ****        0.0000 
     29 F29        -3.9013   -5.1994    2.3697 F         1 ****        0.0000 
     30 F30        -6.5979   -5.6569    3.1978 F         1 ****        0.0000 
     31 F31        -5.6346   -5.5891   -1.4439 F         1 ****        0.0000 
     32 F32        -7.9720   -4.7646   -0.0214 F         1 ****        0.0000 
     33 F33        -6.0291   -1.7341    1.4143 F         1 ****        0.0000 
     34 F34        -6.0217   -1.7329   -1.4434 F         1 ****        0.0000 
@<TRIPOS>BOND
     1    1    2 1    
     2    1    3 1    
     3    1   12 1    
     4    2    4 1    
     5    2   14 1    
     6    2   15 1    
     7    3    5 1    
     8    3   13 1    
     9    3   16 1    
    10    4    7 1    
    11    4   19 1    
    12    4   20 1    
    13    5    6 1    
    14    5   17 1    
    15    5   18 1    
    16    6    9 1    
    17    6   33 1    
    18    6   34 1    
    19    7    8 1    
    20    7   21 1    
    21    7   22 1    
    22    8   10 1    
    23    8   23 1    
    24    8   24 1    
    25    9   11 1    
    26    9   31 1    
    27    9   32 1    
    28   10   25 1    
    29   10   26 1    
    30   10   27 1    
    31   11   28 1    
    32   11   29 1    
    33   11   30 1    
@<TRIPOS>SUBSTRUCTURE
     1 ****        1 GROUP             0       ****    0 ROOT    
